src/gurobi_optimods/data/opf/caseNY.m
% Case saved by PowerWorld Simulator, version 20, build date October 21, 2019
function mpc = Base_NewYork_12012020
mpc.version = '2';
mpc.baseMVA =  100.00;

%% bus data
mpc.bus = [
123	1	0.00	0.00	0.00	0.00	35	0.9977258	-46.521632	138.00	1	1.100	0.900	-2.00	0.00	0	0
187	1	0.00	0.00	0.00	0.00	3	0.9949970	-124.633677	138.00	1	1.100	0.900	-2.00	0.00	0	0
239	1	0.00	0.00	0.00	0.00	3	1.0085866	-115.049222	230.00	1	1.100	0.900	-2.00	0.00	0	0
338	1	0.00	0.00	0.00	0.00	3	0.9588358	-122.255071	138.00	1	1.100	0.900	-2.00	0.00	0	0
845	1	0.00	0.00	0.00	0.00	3	0.9859542	-118.532151	138.00	1	1.100	0.900	-2.00	0.00	0	0
1380	1	0.00	0.00	0.00	0.00	16	0.9835963	-112.334516	138.00	1	1.100	0.900	-2.00	0.00	0	0
1761	1	0.00	0.00	0.00	0.00	16	1.0297574	-107.893356	230.00	1	1.100	0.900	-2.00	0.00	0	0
3338	1	0.00	0.00	0.00	0.00	35	0.9980320	-108.802890	138.00	1	1.100	0.900	-2.00	0.00	0	0
3362	1	0.00	0.00	0.00	0.00	35	1.0378681	-28.286405	345.00	1	1.100	0.900	-2.00	0.00	0	0
3433	1	0.00	0.00	0.00	0.00	35	1.0342067	-104.806456	345.00	1	1.100	0.900	-2.00	0.00	0	0
3502	3	0.00	0.00	0.00	0.00	24	1.0200000	-114.997324	345.00	1	1.100	0.900	-2.00	0.00	0	0
3503	2	0.00	0.00	0.00	0.00	24	1.0200000	-114.995526	345.00	1	1.100	0.900	-2.00	0.00	0	0
3504	2	0.00	0.00	0.00	0.00	24	1.0200000	-85.245455	345.00	1	1.100	0.900	-2.00	0.00	0	0
3505	2	0.00	0.00	0.00	0.00	24	0.9999571	-123.027932	230.00	1	1.100	0.900	-2.00	0.00	0	0
3506	2	0.00	0.00	0.00	0.00	24	1.0200000	-84.409483	345.00	1	1.100	0.900	-2.00	0.00	0	0
3507	2	52.59	0.00	0.00	0.00	24	1.0200000	-101.740945	230.00	1	1.100	0.900	-2.00	0.00	0	0
3508	2	0.00	0.00	0.00	0.00	24	1.0199490	-84.419839	345.00	1	1.100	0.900	-2.00	0.00	0	0
3509	2	0.00	0.00	0.00	0.00	24	1.0146173	-116.186360	345.00	1	1.100	0.900	-2.00	0.00	0	0
3510	2	0.00	0.00	0.00	0.00	24	1.0200000	-111.601937	345.00	1	1.100	0.900	-2.00	0.00	0	0
3511	2	13.10	0.00	0.00	0.00	24	1.0200000	-93.577294	138.00	1	1.100	0.900	-2.00	0.00	0	0
3512	2	0.00	0.00	0.00	0.00	24	1.0200000	-109.094336	345.00	1	1.100	0.900	-2.00	0.00	0	0
3513	2	0.00	0.00	0.00	0.00	24	1.0200000	-116.512411	345.00	1	1.100	0.900	-2.00	0.00	0	0
3514	2	0.00	0.00	0.00	0.00	24	1.0200000	-123.659755	345.00	1	1.100	0.900	-2.00	0.00	0	0
3515	2	39.56	0.00	0.00	0.00	24	1.0200000	-122.220721	230.00	1	1.100	0.900	-2.00	0.00	0	0
3516	2	0.00	0.00	0.00	0.00	24	1.0200000	-104.179637	345.00	1	1.100	0.900	-2.00	0.00	0	0
3517	2	0.00	0.00	0.00	0.00	24	1.0164298	-108.152629	345.00	1	1.100	0.900	-2.00	0.00	0	0
3518	2	50.44	25.43	0.00	0.00	24	0.9766088	-117.420200	138.00	1	1.100	0.900	-2.00	0.00	0	0
3519	2	40.21	0.00	0.00	0.00	24	0.9973052	-125.110868	138.00	1	1.100	0.900	-2.00	0.00	0	0
3520	2	0.00	0.00	0.00	0.00	24	0.9995456	-122.057240	345.00	1	1.100	0.900	-2.00	0.00	0	0
3521	2	0.00	0.00	0.00	0.00	24	1.0105944	-119.900261	345.00	1	1.100	0.900	-2.00	0.00	0	0
3522	2	0.00	0.00	0.00	0.00	24	1.0200000	-108.773406	345.00	1	1.100	0.900	-2.00	0.00	0	0
3523	2	0.00	0.00	0.00	0.00	24	1.0024318	-122.174155	345.00	1	1.100	0.900	-2.00	0.00	0	0
3524	2	0.00	0.00	0.00	0.00	24	1.0006887	-123.161150	230.00	1	1.100	0.900	-2.00	0.00	0	0
3525	2	0.00	0.00	0.00	0.00	24	1.0006440	-121.966992	345.00	1	1.100	0.900	-2.00	0.00	0	0
3526	2	0.00	0.00	0.00	0.00	24	1.0200000	-84.665662	345.00	1	1.100	0.900	-2.00	0.00	0	0
3527	2	22.91	0.00	0.00	0.00	24	1.0200000	-89.094851	138.00	1	1.100	0.900	-2.00	0.00	0	0
3528	2	0.00	0.00	0.00	0.00	24	1.0006489	-121.985044	345.00	1	1.100	0.900	-2.00	0.00	0	0
3529	2	32.96	0.00	0.00	0.00	24	1.0200000	-98.794184	138.00	1	1.100	0.900	-2.00	0.00	0	0
3530	2	22.27	0.00	0.00	0.00	24	1.0200000	-99.355250	138.00	1	1.100	0.900	-2.00	0.00	0	0
3531	2	47.53	16.64	0.00	0.00	24	0.9868849	-125.523323	138.00	1	1.100	0.900	-2.00	0.00	0	0
3532	2	0.00	0.00	0.00	0.00	24	0.9939786	-124.627762	138.00	1	1.100	0.900	-2.00	0.00	0	0
3533	2	2.33	0.00	0.00	0.00	24	1.0200000	-88.687578	138.00	1	1.100	0.900	-2.00	0.00	0	0
3534	2	17.28	0.00	0.00	0.00	24	1.0200000	-105.819911	138.00	1	1.100	0.900	-2.00	0.00	0	0
3535	2	20.11	11.73	0.00	0.00	24	0.9895519	-119.412414	138.00	1	1.100	0.900	-2.00	0.00	0	0
3536	2	34.67	0.00	0.00	0.00	24	1.0200000	-31.757628	138.00	1	1.100	0.900	-2.00	0.00	0	0
3537	2	0.00	0.00	0.00	0.00	24	1.0200000	-31.894943	138.00	1	1.100	0.900	-2.00	0.00	0	0
3538	2	32.99	0.00	0.00	0.00	24	1.0200000	-100.978984	138.00	1	1.100	0.900	-2.00	0.00	0	0
3539	2	0.00	0.00	0.00	0.00	24	0.9721708	-127.488328	138.00	1	1.100	0.900	-2.00	0.00	0	0
3540	2	96.17	0.00	0.00	0.00	24	1.0200000	-31.823772	138.00	1	1.100	0.900	-2.00	0.00	0	0
3541	2	12.61	0.00	0.00	0.00	24	1.0200000	-104.153879	138.00	1	1.100	0.900	-2.00	0.00	0	0
3542	2	0.00	0.00	0.00	0.00	24	1.0245961	-28.453563	345.00	1	1.100	0.900	-2.00	0.00	0	0
3543	2	0.00	0.00	0.00	0.00	24	1.0200000	-110.892887	138.00	1	1.100	0.900	-2.00	0.00	0	0
3544	2	44.91	0.00	0.00	0.00	24	1.0200003	-101.330449	138.00	1	1.100	0.900	2.00	0.00	0	0
3545	2	42.73	0.00	0.00	0.00	24	1.0200000	-117.901516	138.00	1	1.100	0.900	-2.00	0.00	0	0
3546	1	0.00	0.00	0.00	0.00	24	1.0067692	-120.501854	345.00	1	1.100	0.900	-2.00	0.00	0	0
3547	2	0.00	0.00	0.00	0.00	24	1.0200000	-113.860723	345.00	1	1.100	0.900	-2.00	0.00	0	0
3548	2	42.09	-20.74	0.00	0.00	24	1.0200000	-35.732107	138.00	1	1.100	0.900	-2.00	0.00	0	0
3549	2	12.23	15.34	0.00	0.00	24	1.0051948	-102.587952	138.00	1	1.100	0.900	-2.00	0.00	0	0
3550	2	24.70	12.34	0.00	0.00	24	0.9983040	-93.037198	138.00	1	1.100	0.900	-2.00	0.00	0	0
3551	2	12.78	10.25	0.00	0.00	24	0.9983852	-96.398652	138.00	1	1.100	0.900	-2.00	0.00	0	0
3552	2	16.39	17.06	0.00	0.00	24	0.9697060	-126.262805	138.00	1	1.100	0.900	-2.00	0.00	0	0
3555	2	0.00	0.00	0.00	0.00	24	0.9897568	-119.375182	138.00	1	1.100	0.900	-2.00	0.00	0	0
3556	2	3.97	2.28	0.00	0.00	24	1.0185044	-86.777367	138.00	1	1.100	0.900	-2.00	0.00	0	0
3557	2	0.00	0.00	0.00	0.00	24	1.0440244	-27.954967	345.00	1	1.100	0.900	-2.00	0.00	0	0
3558	2	0.00	0.00	0.00	0.00	24	1.0160810	-118.846788	230.00	1	1.100	0.900	-2.00	0.00	0	0
3559	2	83.54	0.00	0.00	0.00	24	1.0200007	-102.591003	138.00	1	1.100	0.900	-2.00	0.00	0	0
3561	1	0.00	0.00	0.00	0.00	24	1.0086199	-107.589739	345.00	1	1.100	0.900	-2.00	0.00	0	0
3562	2	0.00	0.00	0.00	0.00	24	0.9880103	-124.644233	138.00	1	1.100	0.900	-2.00	0.00	0	0
3563	2	61.47	28.89	0.00	0.00	24	1.0049167	-119.887898	138.00	69	1.100	0.900	-2.00	0.00	0	0
3564	2	36.59	0.00	0.00	0.00	24	1.0200000	-116.695482	230.00	1	1.100	0.900	-2.00	0.00	0	0
3565	2	29.76	17.55	0.00	0.00	24	0.9939139	-124.629377	138.00	1	1.100	0.900	-2.00	0.00	0	0
3566	2	11.54	6.95	0.00	0.00	24	0.9873381	-118.077053	138.00	1	1.100	0.900	-2.00	0.00	0	0
3567	2	0.00	0.00	0.00	0.00	24	0.9980364	-122.915973	138.00	1	1.100	0.900	-2.00	0.00	0	0
3568	2	60.83	44.16	0.00	0.00	24	0.9711817	-123.207500	138.00	1	1.100	0.900	-2.00	0.00	0	0
3569	2	35.28	0.00	0.00	0.00	24	1.0200000	-117.910305	138.00	1	1.100	0.900	-2.00	0.00	0	0
3570	2	0.00	0.00	0.00	0.00	24	0.9983744	-123.049225	138.00	1	1.100	0.900	-2.00	0.00	0	0
3571	1	0.00	0.00	0.00	0.00	24	1.0199921	-108.773943	345.00	1	1.100	0.900	-2.00	0.00	0	0
3572	2	0.00	0.00	0.00	0.00	24	0.9884443	-125.485479	138.00	1	1.100	0.900	-2.00	0.00	0	0
3573	2	17.94	15.63	0.00	0.00	24	0.9948019	-93.815734	138.00	1	1.100	0.900	-2.00	0.00	0	0
3574	1	0.00	0.00	0.00	0.00	24	1.0092878	-107.087853	345.00	1	1.100	0.900	-2.00	0.00	0	0
3576	2	41.97	21.34	0.00	0.00	24	1.0076865	-107.146086	138.00	1	1.100	0.900	-2.00	0.00	0	0
3577	2	0.00	0.00	0.00	0.00	24	1.0164342	-114.087400	138.00	1	1.100	0.900	-2.00	0.00	0	0
3578	2	13.99	4.40	0.00	0.00	24	0.9825108	-125.556652	138.00	1	1.100	0.900	-2.00	0.00	0	0
3579	2	22.44	-2.80	0.00	0.00	24	0.9780718	-126.159602	138.00	1	1.100	0.900	-2.00	0.00	0	0
3581	2	0.00	0.00	0.00	0.00	24	0.9802588	-125.415191	138.00	1	1.100	0.900	-2.00	0.00	0	0
3582	2	0.00	0.00	0.00	0.00	24	0.9801079	-125.401956	138.00	1	1.100	0.900	-2.00	0.00	0	0
3583	2	8.62	2.24	0.00	0.00	24	0.9780125	-126.296356	138.00	1	1.100	0.900	-2.00	0.00	0	0
3584	2	0.00	0.00	0.00	0.00	24	0.9746509	-127.529107	138.00	1	1.100	0.900	-2.00	0.00	0	0
3585	2	7.33	4.03	0.00	0.00	24	0.9897056	-112.195752	138.00	1	1.100	0.900	-2.00	0.00	0	0
3586	2	0.00	0.00	0.00	0.00	24	0.9992474	-119.576407	138.00	1	1.100	0.900	-2.00	0.00	0	0
3587	2	0.87	0.46	0.00	0.00	24	0.9667930	-120.437333	138.00	1	1.100	0.900	-2.00	0.00	0	0
3588	2	45.08	0.00	0.00	0.00	24	1.0200000	-105.178429	138.00	1	1.100	0.900	-2.00	0.00	0	0
3590	2	0.00	0.00	0.00	0.00	24	1.0200000	-24.473083	138.00	1	1.100	0.900	-2.00	0.00	0	0
3592	2	5.53	0.00	0.00	0.00	24	1.0200000	-98.164986	138.00	1	1.100	0.900	-2.00	0.00	0	0
3593	1	0.00	0.00	0.00	0.00	24	0.9909438	-113.911104	345.00	1	1.100	0.900	-2.00	0.00	0	0
3594	2	0.00	0.00	0.00	0.00	24	1.0200000	-82.463476	138.00	1	1.100	0.900	-2.00	0.00	0	0
3595	2	0.00	0.00	0.00	0.00	24	0.9948461	-93.768040	138.00	1	1.100	0.900	-2.00	0.00	0	0
3597	2	66.94	0.00	0.00	0.00	24	1.0200003	-103.191047	138.00	1	1.100	0.900	2.00	0.00	0	0
3598	2	0.00	0.00	0.00	0.00	24	0.9838471	-125.331318	138.00	1	1.100	0.900	-2.00	0.00	0	0
3599	2	0.00	0.00	0.00	0.00	24	1.0200000	-114.016075	138.00	1	1.100	0.900	-2.00	0.00	0	0
3600	2	2.14	1.16	0.00	0.00	24	1.0163928	-91.575965	138.00	1	1.100	0.900	-2.00	0.00	0	0
3602	2	0.00	0.00	0.00	0.00	24	1.0200000	-110.621714	138.00	1	1.100	0.900	-2.00	0.00	0	0
3603	2	0.00	0.00	0.00	0.00	24	0.9846061	-96.180542	138.00	1	1.100	0.900	-2.00	0.00	0	0
3604	2	67.47	0.00	0.00	0.00	24	1.0200000	-81.511734	138.00	1	1.100	0.900	-2.00	0.00	0	0
3606	2	10.06	15.73	0.00	0.00	24	0.9732001	-126.569605	138.00	1	1.100	0.900	-2.00	0.00	0	0
3609	2	0.00	0.00	0.00	0.00	24	1.0014018	-50.077296	138.00	1	1.100	0.900	-2.00	0.00	0	0
3610	2	0.00	0.00	0.00	0.00	24	0.9860460	-61.364644	138.00	1	1.100	0.900	-2.00	0.00	0	0
3612	2	4.64	5.34	0.00	0.00	24	0.9836329	-110.982271	230.00	1	1.100	0.900	-2.00	0.00	0	0
3613	2	0.00	0.00	0.00	0.00	24	1.0200000	-54.212438	138.00	69	1.100	0.900	-2.00	0.00	0	0
3614	2	0.00	0.00	0.00	0.00	24	1.0200252	-111.325490	138.00	1	1.100	0.900	-2.00	0.00	0	0
3615	2	31.67	0.00	0.00	0.00	24	1.0200000	-111.051285	138.00	1	1.100	0.900	-2.00	0.00	0	0
3616	2	0.00	0.00	0.00	0.00	24	1.0031684	-46.677456	138.00	1	1.100	0.900	-2.00	0.00	0	0
3617	2	0.00	0.00	0.00	0.00	24	0.9796233	-120.882376	138.00	1	1.100	0.900	-2.00	0.00	0	0
3618	2	14.41	0.00	0.00	0.00	24	1.0200000	-110.944935	138.00	1	1.100	0.900	-2.00	0.00	0	0
3619	2	0.00	0.00	0.00	0.00	24	0.9778264	-126.257683	138.00	1	1.100	0.900	-2.00	0.00	0	0
3620	2	67.52	0.00	0.00	0.00	24	1.0200000	-104.921117	138.00	1	1.100	0.900	-2.00	0.00	0	0
3622	1	0.00	0.00	0.00	0.00	24	0.9668424	-113.655890	138.00	1	1.100	0.900	-2.00	0.00	0	0
3625	2	0.00	0.00	0.00	0.00	24	1.0167176	-55.556587	138.00	69	1.100	0.900	-2.00	0.00	0	0
3627	2	0.00	0.00	0.00	0.00	24	0.9966972	-122.717149	345.00	1	1.100	0.900	-2.00	0.00	0	0
3628	2	47.31	7.59	0.00	0.00	24	1.0164414	-110.964980	138.00	1	1.100	0.900	-2.00	0.00	0	0
3630	1	28.68	13.43	0.00	0.00	24	0.9874267	-112.780527	138.00	1	1.100	0.900	-2.00	0.00	0	0
3631	1	20.41	10.50	0.00	0.00	24	0.9883268	-112.622898	138.00	1	1.100	0.900	-2.00	0.00	0	0
3651	1	43.38	22.02	0.00	0.00	24	0.9884668	-112.375000	138.00	1	1.100	0.900	-2.00	0.00	0	0
3654	1	42.04	21.27	0.00	0.00	24	0.9917261	-112.150038	138.00	1	1.100	0.900	-2.00	0.00	0	0
3655	1	77.61	38.39	0.00	0.00	24	0.9902743	-112.222745	138.00	1	1.100	0.900	-2.00	0.00	0	0
3664	1	78.78	-7.84	0.00	0.00	24	0.9906568	-115.266390	138.00	1	1.100	0.900	-2.00	0.00	0	0
3666	1	31.11	-1.28	0.00	0.00	24	0.9903496	-115.465436	138.00	1	1.100	0.900	-2.00	0.00	0	0
3670	1	53.50	2.04	0.00	0.00	24	0.9868093	-112.988080	138.00	1	1.100	0.900	-2.00	0.00	0	0
3671	1	18.57	8.41	0.00	0.00	24	0.9878373	-113.786554	138.00	1	1.100	0.900	-2.00	0.00	0	0
3675	1	14.00	6.00	0.00	0.00	24	0.9891913	-113.358687	138.00	1	1.100	0.900	-2.00	0.00	0	0
3678	1	16.30	7.45	0.00	0.00	24	0.9871657	-113.849012	138.00	1	1.100	0.900	-2.00	0.00	0	0
3684	1	32.81	13.74	0.00	0.00	24	0.9910069	-112.415255	138.00	1	1.100	0.900	-2.00	0.00	0	0
3685	1	25.38	17.77	0.00	0.00	24	0.9884396	-112.289629	138.00	1	1.100	0.900	-2.00	0.00	0	0
3686	1	34.30	13.38	0.00	0.00	24	0.9925765	-112.016511	138.00	1	1.100	0.900	-2.00	0.00	0	0
3687	1	10.87	9.42	0.00	0.00	24	0.9904648	-111.763742	138.00	1	1.100	0.900	-2.00	0.00	0	0
3693	1	5.49	2.80	0.00	0.00	24	0.9883557	-113.304708	138.00	1	1.100	0.900	-2.00	0.00	0	0
3696	1	30.00	13.61	0.00	0.00	24	0.9875897	-113.191851	138.00	1	1.100	0.900	-2.00	0.00	0	0
3707	1	17.03	0.33	0.00	0.00	24	1.0186277	-99.954905	138.00	1	1.100	0.900	-2.00	0.00	0	0
3718	1	16.96	4.10	0.00	0.00	24	0.9836429	-125.341444	138.00	1	1.100	0.900	-2.00	0.00	0	0
3722	1	0.00	0.00	0.00	0.00	24	0.9970715	-122.197877	345.00	1	1.100	0.900	-2.00	0.00	0	0
3726	1	7.64	1.83	0.00	0.00	24	0.9794134	-125.542091	138.00	1	1.100	0.900	-2.00	0.00	0	0
3727	1	4.45	1.07	0.00	0.00	24	0.9794941	-125.520471	138.00	1	1.100	0.900	-2.00	0.00	0	0
3728	1	23.88	7.85	0.00	0.00	24	0.9795703	-125.501426	138.00	1	1.100	0.900	-2.00	0.00	0	0
3729	1	47.39	15.76	0.00	0.00	24	0.9741905	-126.051421	138.00	1	1.100	0.900	-2.00	0.00	0	0
3736	1	0.90	0.21	0.00	0.00	24	0.9733853	-126.154800	138.00	1	1.100	0.900	-2.00	0.00	0	0
3738	1	46.14	15.42	0.00	0.00	24	0.9735480	-126.186919	138.00	1	1.100	0.900	-2.00	0.00	0	0
3745	1	25.15	10.09	0.00	0.00	24	0.9790315	-125.596043	138.00	1	1.100	0.900	-2.00	0.00	0	0
3753	1	23.81	8.06	0.00	0.00	24	0.9733501	-126.107135	138.00	1	1.100	0.900	-2.00	0.00	0	0
3762	1	4.37	1.03	0.00	0.00	24	0.9732901	-126.134906	138.00	1	1.100	0.900	-2.00	0.00	0	0
3763	1	19.31	5.48	0.00	0.00	24	0.9757639	-125.925951	138.00	1	1.100	0.900	-2.00	0.00	0	0
3769	1	5.21	1.24	0.00	0.00	24	0.9758563	-125.913429	138.00	1	1.100	0.900	-2.00	0.00	0	0
3770	1	6.53	1.56	0.00	0.00	24	0.9759543	-125.899783	138.00	1	1.100	0.900	-2.00	0.00	0	0
3778	1	46.43	17.44	0.00	0.00	24	0.9761611	-125.870414	138.00	1	1.100	0.900	-2.00	0.00	0	0
3784	1	7.25	1.71	0.00	0.00	24	0.9697301	-126.832022	138.00	1	1.100	0.900	-2.00	0.00	0	0
3794	1	5.48	1.41	0.00	0.00	24	0.9704452	-126.610314	138.00	1	1.100	0.900	-2.00	0.00	0	0
3797	1	6.04	1.42	0.00	0.00	24	0.9701032	-126.711849	138.00	1	1.100	0.900	-2.00	0.00	0	0
3800	1	4.24	1.00	0.00	0.00	24	0.9706973	-126.540307	138.00	1	1.100	0.900	-2.00	0.00	0	0
3801	1	16.06	0.43	0.00	0.00	24	0.9701703	-126.183286	138.00	1	1.100	0.900	-2.00	0.00	0	0
3806	1	22.09	5.17	0.00	0.00	24	0.9710028	-126.458786	138.00	1	1.100	0.900	-2.00	0.00	0	0
3816	1	21.65	2.98	0.00	0.00	24	0.9704092	-126.116514	138.00	1	1.100	0.900	-2.00	0.00	0	0
3818	1	20.37	2.64	0.00	0.00	24	0.9703596	-126.127477	138.00	1	1.100	0.900	-2.00	0.00	0	0
3827	1	17.05	4.86	0.00	0.00	24	0.9742754	-125.896990	138.00	1	1.100	0.900	-2.00	0.00	0	0
3828	1	20.68	5.38	0.00	0.00	24	0.9748348	-125.892262	138.00	1	1.100	0.900	-2.00	0.00	0	0
3830	1	18.09	4.33	0.00	0.00	24	0.9718984	-126.250448	138.00	1	1.100	0.900	-2.00	0.00	0	0
3838	1	46.93	13.77	0.00	0.00	24	0.9741472	-125.891500	138.00	1	1.100	0.900	-2.00	0.00	0	0
3842	1	42.62	12.94	0.00	0.00	24	0.9728050	-125.788718	138.00	1	1.100	0.900	-2.00	0.00	0	0
3846	1	21.33	5.62	0.00	0.00	24	0.9730695	-126.046503	138.00	1	1.100	0.900	-2.00	0.00	0	0
3847	1	3.64	0.86	0.00	0.00	24	0.9730585	-126.070975	138.00	1	1.100	0.900	-2.00	0.00	0	0
3849	1	4.21	1.14	0.00	0.00	24	0.9731331	-126.111670	138.00	1	1.100	0.900	-2.00	0.00	0	0
3851	1	16.47	2.65	0.00	0.00	24	0.9731203	-125.840158	138.00	1	1.100	0.900	-2.00	0.00	0	0
3854	1	8.73	2.16	0.00	0.00	24	0.9730999	-126.081767	138.00	1	1.100	0.900	-2.00	0.00	0	0
3857	1	15.57	4.39	0.00	0.00	24	0.9731555	-126.097790	138.00	1	1.100	0.900	-2.00	0.00	0	0
3858	1	3.75	0.89	0.00	0.00	24	0.9733964	-125.867134	138.00	1	1.100	0.900	-2.00	0.00	0	0
3861	1	31.88	7.62	0.00	0.00	24	0.9736410	-125.887955	138.00	1	1.100	0.900	-2.00	0.00	0	0
3862	1	20.79	5.79	0.00	0.00	24	0.9730580	-126.096232	138.00	1	1.100	0.900	-2.00	0.00	0	0
3867	1	27.55	2.94	0.00	0.00	24	0.9702404	-126.157272	138.00	1	1.100	0.900	-2.00	0.00	0	0
3870	1	19.06	5.13	0.00	0.00	24	0.9702724	-126.144678	138.00	1	1.100	0.900	-2.00	0.00	0	0
3871	1	16.63	4.38	0.00	0.00	24	0.9727248	-125.933338	138.00	1	1.100	0.900	-2.00	0.00	0	0
3872	1	4.16	0.97	0.00	0.00	24	0.9703743	-126.123696	138.00	1	1.100	0.900	-2.00	0.00	0	0
3875	1	0.77	0.19	0.00	0.00	24	0.9704137	-126.116709	138.00	1	1.100	0.900	-2.00	0.00	0	0
3878	1	1.73	0.41	0.00	0.00	24	0.9704705	-126.104496	138.00	1	1.100	0.900	-2.00	0.00	0	0
3879	1	5.11	1.20	0.00	0.00	24	0.9707471	-126.050374	138.00	1	1.100	0.900	-2.00	0.00	0	0
3880	1	17.22	4.55	0.00	0.00	24	0.9706564	-126.066616	138.00	1	1.100	0.900	-2.00	0.00	0	0
3883	1	7.97	2.09	0.00	0.00	24	0.9714650	-125.840696	138.00	1	1.100	0.900	-2.00	0.00	0	0
3886	1	7.72	2.22	0.00	0.00	24	0.9713766	-125.873513	138.00	1	1.100	0.900	-2.00	0.00	0	0
3888	1	7.27	1.71	0.00	0.00	24	0.9708952	-126.024091	138.00	1	1.100	0.900	-2.00	0.00	0	0
3890	1	3.77	0.90	0.00	0.00	24	0.9733327	-125.997425	138.00	1	1.100	0.900	-2.00	0.00	0	0
3895	1	4.76	1.12	0.00	0.00	24	0.9726936	-125.885575	138.00	1	1.100	0.900	-2.00	0.00	0	0
3897	1	1.21	0.29	0.00	0.00	24	0.9735226	-125.938879	138.00	1	1.100	0.900	-2.00	0.00	0	0
3898	1	14.48	3.80	0.00	0.00	24	0.9712628	-125.959635	138.00	1	1.100	0.900	-2.00	0.00	0	0
3899	1	2.77	0.66	0.00	0.00	24	0.9734488	-125.976075	138.00	1	1.100	0.900	-2.00	0.00	0	0
3900	1	7.34	1.73	0.00	0.00	24	0.9713261	-125.898638	138.00	1	1.100	0.900	-2.00	0.00	0	0
3901	1	0.99	0.24	0.00	0.00	24	0.9735856	-125.951153	138.00	1	1.100	0.900	-2.00	0.00	0	0
3902	1	6.00	1.42	0.00	0.00	24	0.9712855	-125.927992	138.00	1	1.100	0.900	-2.00	0.00	0	0
3903	1	1.38	0.32	0.00	0.00	24	0.9741323	-125.869633	138.00	1	1.100	0.900	-2.00	0.00	0	0
3905	1	28.33	7.42	0.00	0.00	24	0.9724352	-125.568454	138.00	1	1.100	0.900	-2.00	0.00	0	0
3906	1	5.34	1.26	0.00	0.00	24	0.9722871	-125.609260	138.00	1	1.100	0.900	-2.00	0.00	0	0
3907	1	3.93	0.93	0.00	0.00	24	0.9723459	-126.145392	138.00	1	1.100	0.900	-2.00	0.00	0	0
3908	1	8.80	2.33	0.00	0.00	24	0.9720860	-125.659475	138.00	1	1.100	0.900	-2.00	0.00	0	0
3909	1	12.39	3.07	0.00	0.00	24	0.9731073	-125.984617	138.00	1	1.100	0.900	-2.00	0.00	0	0
...
];

%% generator data
mpc.gen = [
3502	1138.53	391.90	974.30	-433.00	1.0200	100.00	1	1299.00	0.00	0.00	0.00	0.00	0.00	0.00	0.00	0	0	0	0	0.0000	0	0	0	0
3503	1012.00	346.00	759.00	-337.30	1.0200	100.00	1	1012.00	0.00	0.00	0.00	0.00	0.00	0.00	0.00	0	0	0	0	0.0000	0	0	0	0
3504	90.11	89.64	370.40	-370.40	1.0200	100.00	1	901.80	45.00	0.00	0.00	0.00	0.00	0.00	0.00	0	0	0	0	901.8000	0	0	0	0
3504	286.82	89.64	370.40	-370.40	1.0200	100.00	1	901.80	45.00	0.00	0.00	0.00	0.00	0.00	0.00	0	0	0	0	901.8000	0	0	0	0
3505	487.92	0.00	0.00	0.00	1.0200	100.00	1	883.00	1.00	0.00	0.00	0.00	0.00	0.00	0.00	0	0	0	0	883.0000	0	0	0	0
3506	882.00	90.41	661.50	-294.00	1.0200	100.00	1	882.00	0.00	0.00	0.00	0.00	0.00	0.00	0.00	0	0	0	0	0.0000	0	0	0	0
3507	182.77	67.43	317.30	-218.40	1.0200	100.00	1	655.10	150.00	0.00	0.00	0.00	0.00	0.00	0.00	0	0	0	0	655.1000	0	0	0	0
3508	1259.30	45.21	609.90	-419.80	1.0200	100.00	1	1259.30	75.00	0.00	0.00	0.00	0.00	0.00	0.00	0	0	0	0	0.0000	0	0	0	0
3508	641.80	45.21	397.80	-213.90	1.0200	100.00	1	641.80	105.00	0.00	0.00	0.00	0.00	0.00	0.00	0	0	0	0	0.0000	0	0	0	0
3509	507.25	300.80	300.80	-207.00	1.0200	100.00	1	621.00	100.00	0.00	0.00	0.00	0.00	0.00	0.00	0	0	0	0	621.0000	0	0	0	0
3509	327.00	300.80	300.80	-207.00	1.0200	100.00	1	621.00	80.00	0.00	0.00	0.00	0.00	0.00	0.00	0	0	0	0	621.0000	0	0	0	0
3510	235.06	87.39	300.80	-207.00	1.0200	100.00	1	621.00	140.00	0.00	0.00	0.00	0.00	0.00	0.00	0	0	0	0	621.0000	0	0	0	0
3510	223.54	87.39	300.80	-207.00	1.0200	100.00	1	621.00	140.00	0.00	0.00	0.00	0.00	0.00	0.00	0	0	0	0	621.0000	0	0	0	0
3511	614.00	85.26	261.60	-261.60	1.0200	100.00	1	614.00	291.00	0.00	0.00	0.00	0.00	0.00	0.00	0	0	0	0	0.0000	0	0	0	0
3512	47.20	16.38	48.80	-48.80	1.0200	100.00	1	148.40	11.00	0.00	0.00	0.00	0.00	0.00	0.00	0	0	0	0	148.4000	0	0	0	0
3512	89.66	16.38	98.15	-98.15	1.0200	100.00	1	223.00	78.50	0.00	0.00	0.00	0.00	0.00	0.00	0	0	0	0	223.0000	0	0	0	0
3512	89.66	16.38	98.15	-98.15	1.0200	100.00	1	223.00	78.50	0.00	0.00	0.00	0.00	0.00	0.00	0	0	0	0	223.0000	0	0	0	0
3512	49.76	16.38	46.10	-31.70	1.0200	100.00	1	95.20	45.00	0.00	0.00	0.00	0.00	0.00	0.00	0	0	0	0	95.2000	0	0	0	0
3512	49.76	16.38	46.10	-31.70	1.0200	100.00	1	95.20	45.00	0.00	0.00	0.00	0.00	0.00	0.00	0	0	0	0	95.2000	0	0	0	0
3512	49.76	16.38	46.10	-31.70	1.0200	100.00	1	95.20	45.00	0.00	0.00	0.00	0.00	0.00	0.00	0	0	0	0	95.2000	0	0	0	0
3513	320.86	64.66	187.40	-129.00	1.0200	100.00	1	387.00	40.00	0.00	0.00	0.00	0.00	0.00	0.00	0	0	0	0	387.0000	0	0	0	0
3513	320.86	64.66	187.40	-129.00	1.0200	100.00	1	387.00	40.00	0.00	0.00	0.00	0.00	0.00	0.00	0	0	0	0	387.0000	0	0	0	0
3513	320.86	64.66	187.40	-129.00	1.0200	100.00	1	387.00	40.00	0.00	0.00	0.00	0.00	0.00	0.00	0	0	0	0	387.0000	0	0	0	0
3513	320.86	64.66	187.40	-129.00	1.0200	100.00	1	387.00	30.00	0.00	0.00	0.00	0.00	0.00	0.00	0	0	0	0	387.0000	0	0	0	0
3514	443.98	253.68	259.40	-178.50	1.0200	100.00	1	535.50	150.00	0.00	0.00	0.00	0.00	0.00	0.00	0	0	0	0	535.5000	0	0	0	0
3514	283.55	253.68	256.50	-114.00	1.0200	100.00	1	342.00	90.00	0.00	0.00	0.00	0.00	0.00	0.00	0	0	0	0	342.0000	0	0	0	0
3515	155.87	90.33	116.50	-62.70	1.0200	100.00	1	188.00	15.00	0.00	0.00	0.00	0.00	0.00	0.00	0	0	0	0	188.0000	0	0	0	0
3515	21.50	15.32	15.32	-8.64	1.0200	100.00	1	25.93	18.49	0.00	0.00	0.00	0.00	0.00	0.00	0	0	0	0	25.9333	0	0	0	0
3515	21.50	15.32	15.32	-8.64	1.0200	100.00	1	25.93	18.49	0.00	0.00	0.00	0.00	0.00	0.00	0	0	0	0	25.9333	0	0	0	0
3515	21.50	15.32	15.32	-8.64	1.0200	100.00	1	25.93	18.49	0.00	0.00	0.00	0.00	0.00	0.00	0	0	0	0	25.9333	0	0	0	0
3515	21.50	15.32	15.32	-8.64	1.0200	100.00	1	25.93	18.49	0.00	0.00	0.00	0.00	0.00	0.00	0	0	0	0	25.9333	0	0	0	0
3515	21.50	15.32	15.32	-8.64	1.0200	100.00	1	25.93	18.49	0.00	0.00	0.00	0.00	0.00	0.00	0	0	0	0	25.9333	0	0	0	0
3515	155.87	90.33	116.50	-62.70	1.0200	100.00	1	188.00	15.00	0.00	0.00	0.00	0.00	0.00	0.00	0	0	0	0	188.0000	0	0	0	0
3515	21.50	15.32	15.32	-8.64	1.0200	100.00	1	25.93	18.49	0.00	0.00	0.00	0.00	0.00	0.00	0	0	0	0	25.9333	0	0	0	0
3515	21.50	15.32	15.32	-8.64	1.0200	100.00	1	25.93	18.49	0.00	0.00	0.00	0.00	0.00	0.00	0	0	0	0	25.9333	0	0	0	0
3515	21.50	15.32	15.32	-8.64	1.0200	100.00	1	25.93	18.49	0.00	0.00	0.00	0.00	0.00	0.00	0	0	0	0	25.9333	0	0	0	0
3515	21.50	15.32	15.32	-8.64	1.0200	100.00	1	25.93	18.49	0.00	0.00	0.00	0.00	0.00	0.00	0	0	0	0	25.9333	0	0	0	0
3515	21.50	15.32	15.32	-8.64	1.0200	100.00	1	25.93	18.49	0.00	0.00	0.00	0.00	0.00	0.00	0	0	0	0	25.9333	0	0	0	0
3515	21.50	15.32	15.32	-8.64	1.0200	100.00	1	25.93	18.49	0.00	0.00	0.00	0.00	0.00	0.00	0	0	0	0	25.9333	0	0	0	0
3515	21.50	15.32	15.32	-8.64	1.0200	100.00	1	25.93	18.49	0.00	0.00	0.00	0.00	0.00	0.00	0	0	0	0	25.9333	0	0	0	0
3516	97.05	-2.57	87.40	-47.00	1.0200	100.00	1	141.00	90.00	0.00	0.00	0.00	0.00	0.00	0.00	0	0	0	0	141.0000	0	0	0	0
3516	97.05	-2.57	87.40	-47.00	1.0200	100.00	1	141.00	90.00	0.00	0.00	0.00	0.00	0.00	0.00	0	0	0	0	141.0000	0	0	0	0
3516	97.05	-2.57	87.40	-47.00	1.0200	100.00	1	141.00	90.00	0.00	0.00	0.00	0.00	0.00	0.00	0	0	0	0	141.0000	0	0	0	0
3516	209.01	-2.57	185.90	-100.00	1.0200	100.00	1	300.00	194.00	0.00	0.00	0.00	0.00	0.00	0.00	0	0	0	0	300.0000	0	0	0	0
3516	209.01	-2.57	185.90	-100.00	1.0200	100.00	1	300.00	194.00	0.00	0.00	0.00	0.00	0.00	0.00	0	0	0	0	300.0000	0	0	0	0
3516	209.01	-2.57	185.90	-100.00	1.0200	100.00	1	300.00	194.00	0.00	0.00	0.00	0.00	0.00	0.00	0	0	0	0	300.0000	0	0	0	0
3517	131.64	0.00	0.00	0.00	1.0200	100.00	1	250.00	1.00	0.00	0.00	0.00	0.00	0.00	0.00	0	0	0	0	250.0000	0	0	0	0
3517	131.64	0.00	0.00	0.00	1.0200	100.00	1	250.00	1.00	0.00	0.00	0.00	0.00	0.00	0.00	0	0	0	0	250.0000	0	0	0	0
3517	131.64	0.00	0.00	0.00	1.0200	100.00	1	250.00	1.00	0.00	0.00	0.00	0.00	0.00	0.00	0	0	0	0	250.0000	0	0	0	0
3517	131.64	0.00	0.00	0.00	1.0200	100.00	1	250.00	1.00	0.00	0.00	0.00	0.00	0.00	0.00	0	0	0	0	250.0000	0	0	0	0
3518	126.60	50.20	50.20	-50.20	1.0200	100.00	1	152.70	80.00	0.00	0.00	0.00	0.00	0.00	0.00	0	0	0	0	152.7000	0	0	0	0
3518	162.67	64.50	64.50	-64.50	1.0200	100.00	1	196.20	125.00	0.00	0.00	0.00	0.00	0.00	0.00	0	0	0	0	196.2000	0	0	0	0
3519	165.82	150.00	150.00	-66.70	1.0200	100.00	1	200.00	65.00	0.00	0.00	0.00	0.00	0.00	0.00	0	0	0	0	200.0000	0	0	0	0
3519	129.50	117.20	117.20	-52.10	1.0200	100.00	1	156.20	45.00	0.00	0.00	0.00	0.00	0.00	0.00	0	0	0	0	156.2000	0	0	0	0
3519	149.24	111.60	111.60	-60.00	1.0200	100.00	1	180.00	110.00	0.00	0.00	0.00	0.00	0.00	0.00	0	0	0	0	180.0000	0	0	0	0
3519	149.24	111.60	111.60	-60.00	1.0200	100.00	1	180.00	110.00	0.00	0.00	0.00	0.00	0.00	0.00	0	0	0	0	180.0000	0	0	0	0
3520	69.00	0.00	0.00	0.00	1.0200	100.00	1	180.00	60.00	0.00	0.00	0.00	0.00	0.00	0.00	0	0	0	0	180.0000	0	0	0	0
3520	119.59	0.00	0.00	0.00	1.0200	100.00	1	376.00	75.00	0.00	0.00	0.00	0.00	0.00	0.00	0	0	0	0	376.0000	0	0	0	0
3520	94.36	0.00	0.00	0.00	1.0200	100.00	1	387.00	75.00	0.00	0.00	0.00	0.00	0.00	0.00	0	0	0	0	387.0000	0	0	0	0
3520	94.36	0.00	0.00	0.00	1.0200	100.00	1	387.00	75.00	0.00	0.00	0.00	0.00	0.00	0.00	0	0	0	0	387.0000	0	0	0	0
3521	74.45	56.70	56.70	-29.95	1.0200	100.00	1	89.80	37.50	0.00	0.00	0.00	0.00	0.00	0.00	0	0	0	0	89.8000	0	0	0	0
3521	74.45	56.70	56.70	-29.95	1.0200	100.00	1	89.80	37.50	0.00	0.00	0.00	0.00	0.00	0.00	0	0	0	0	89.8000	0	0	0	0
3521	49.75	37.20	37.20	-20.00	1.0200	100.00	1	60.00	35.00	0.00	0.00	0.00	0.00	0.00	0.00	0	0	0	0	60.0000	0	0	0	0
3521	49.75	37.20	37.20	-20.00	1.0200	100.00	1	60.00	35.00	0.00	0.00	0.00	0.00	0.00	0.00	0	0	0	0	60.0000	0	0	0	0
3521	27.94	20.90	20.90	-11.20	1.0200	100.00	1	33.70	15.00	0.00	0.00	0.00	0.00	0.00	0.00	0	0	0	0	33.7000	0	0	0	0
3521	27.94	20.90	20.90	-11.20	1.0200	100.00	1	33.70	15.00	0.00	0.00	0.00	0.00	0.00	0.00	0	0	0	0	33.7000	0	0	0	0
3521	29.85	22.30	22.30	-12.00	1.0200	100.00	1	36.00	5.00	0.00	0.00	0.00	0.00	0.00	0.00	0	0	0	0	36.0000	0	0	0	0
3522	98.95	67.90	110.90	-59.70	1.0200	100.00	1	179.00	90.00	0.00	0.00	0.00	0.00	0.00	0.00	0	0	0	0	179.0000	0	0	0	0
3522	98.95	67.90	110.90	-59.70	1.0200	100.00	1	179.00	90.00	0.00	0.00	0.00	0.00	0.00	0.00	0	0	0	0	179.0000	0	0	0	0
3522	155.71	67.90	183.30	-98.60	1.0200	100.00	1	295.70	135.00	0.00	0.00	0.00	0.00	0.00	0.00	0	0	0	0	295.7000	0	0	0	0
3523	20.73	15.50	15.50	-8.30	1.0200	100.00	1	25.00	10.00	0.00	0.00	0.00	0.00	0.00	0.00	0	0	0	0	25.0000	0	0	0	0
3523	35.57	26.60	26.60	-14.30	1.0200	100.00	1	42.90	10.00	0.00	0.00	0.00	0.00	0.00	0.00	0	0	0	0	42.9000	0	0	0	0
3523	35.57	26.60	26.60	-14.30	1.0200	100.00	1	42.90	10.00	0.00	0.00	0.00	0.00	0.00	0.00	0	0	0	0	42.9000	0	0	0	0
3523	35.57	26.60	26.60	-14.30	1.0200	100.00	1	42.90	10.00	0.00	0.00	0.00	0.00	0.00	0.00	0	0	0	0	42.9000	0	0	0	0
3523	35.57	26.60	26.60	-14.30	1.0200	100.00	1	42.90	10.00	0.00	0.00	0.00	0.00	0.00	0.00	0	0	0	0	42.9000	0	0	0	0
3523	35.57	26.60	26.60	-14.30	1.0200	100.00	1	42.90	10.00	0.00	0.00	0.00	0.00	0.00	0.00	0	0	0	0	42.9000	0	0	0	0
3523	35.57	26.60	26.60	-14.30	1.0200	100.00	1	42.90	10.00	0.00	0.00	0.00	0.00	0.00	0.00	0	0	0	0	42.9000	0	0	0	0
3523	140.95	105.40	105.40	-56.70	1.0200	100.00	1	170.00	90.00	0.00	0.00	0.00	0.00	0.00	0.00	0	0	0	0	170.0000	0	0	0	0
3523	69.00	49.60	49.60	-26.70	1.0200	100.00	1	80.00	65.00	0.00	0.00	0.00	0.00	0.00	0.00	0	0	0	0	80.0000	0	0	0	0
3523	20.73	15.50	15.50	-8.30	1.0200	100.00	1	25.00	10.00	0.00	0.00	0.00	0.00	0.00	0.00	0	0	0	0	25.0000	0	0	0	0
3523	20.73	15.50	15.50	-8.30	1.0200	100.00	1	25.00	10.00	0.00	0.00	0.00	0.00	0.00	0.00	0	0	0	0	25.0000	0	0	0	0
3523	17.49	13.10	13.10	-7.00	1.0200	100.00	1	21.10	7.00	0.00	0.00	0.00	0.00	0.00	0.00	0	0	0	0	21.1000	0	0	0	0
3523	17.49	13.10	13.10	-7.00	1.0200	100.00	1	21.10	7.00	0.00	0.00	0.00	0.00	0.00	0.00	0	0	0	0	21.1000	0	0	0	0
3523	18.24	13.60	13.60	-7.30	1.0200	100.00	1	22.00	7.00	0.00	0.00	0.00	0.00	0.00	0.00	0	0	0	0	22.0000	0	0	0	0
3523	18.24	13.60	13.60	-7.30	1.0200	100.00	1	22.00	7.00	0.00	0.00	0.00	0.00	0.00	0.00	0	0	0	0	22.0000	0	0	0	0
3523	35.57	26.60	26.60	-14.30	1.0200	100.00	1	42.90	10.00	0.00	0.00	0.00	0.00	0.00	0.00	0	0	0	0	42.9000	0	0	0	0
3523	35.57	26.60	26.60	-14.30	1.0200	100.00	1	42.90	10.00	0.00	0.00	0.00	0.00	0.00	0.00	0	0	0	0	42.9000	0	0	0	0
3524	108.50	105.40	105.40	-56.70	1.0200	100.00	1	170.00	100.00	0.00	0.00	0.00	0.00	0.00	0.00	0	0	0	0	170.0000	0	0	0	0
3524	108.50	105.40	105.40	-56.70	1.0200	100.00	1	170.00	100.00	0.00	0.00	0.00	0.00	0.00	0.00	0	0	0	0	170.0000	0	0	0	0
3524	132.76	158.00	158.00	-85.00	1.0200	100.00	1	255.00	120.00	0.00	0.00	0.00	0.00	0.00	0.00	0	0	0	0	255.0000	0	0	0	0
3525	140.95	0.00	0.00	0.00	1.0200	100.00	1	170.00	1.00	0.00	0.00	0.00	0.00	0.00	0.00	0	0	0	0	170.0000	0	0	0	0
3525	140.95	0.00	0.00	0.00	1.0200	100.00	1	170.00	1.00	0.00	0.00	0.00	0.00	0.00	0.00	0	0	0	0	170.0000	0	0	0	0
3525	155.87	0.00	0.00	0.00	1.0200	100.00	1	188.00	1.00	0.00	0.00	0.00	0.00	0.00	0.00	0	0	0	0	188.0000	0	0	0	0
3526	98.46	0.01	126.90	-56.40	1.0200	100.00	1	169.20	90.00	0.00	0.00	0.00	0.00	0.00	0.00	0	0	0	0	169.2000	0	0	0	0
3526	98.46	0.01	126.90	-56.40	1.0200	100.00	1	169.20	90.00	0.00	0.00	0.00	0.00	0.00	0.00	0	0	0	0	169.2000	0	0	0	0
3526	98.46	0.01	126.90	-56.40	1.0200	100.00	1	169.20	90.00	0.00	0.00	0.00	0.00	0.00	0.00	0	0	0	0	169.2000	0	0	0	0
3526	98.48	0.01	127.10	-56.50	1.0200	100.00	1	169.50	90.00	0.00	0.00	0.00	0.00	0.00	0.00	0	0	0	0	169.5000	0	0	0	0
3526	55.23	0.01	104.80	-68.20	1.0200	100.00	1	204.50	45.00	0.00	0.00	0.00	0.00	0.00	0.00	0	0	0	0	204.5000	0	0	0	0
3526	55.23	0.01	104.80	-68.20	1.0200	100.00	1	204.50	45.00	0.00	0.00	0.00	0.00	0.00	0.00	0	0	0	0	204.5000	0	0	0	0
3527	88.04	-8.18	94.30	-55.70	1.0200	100.00	1	167.20	50.00	0.00	0.00	0.00	0.00	0.00	0.00	0	0	0	0	167.2000	0	0	0	0
3527	81.78	-8.18	96.20	-51.80	1.0200	100.00	1	155.30	50.00	0.00	0.00	0.00	0.00	0.00	0.00	0	0	0	0	155.3000	0	0	0	0
3528	17.07	12.76	12.76	-6.86	1.0200	100.00	1	20.59	15.10	0.00	0.00	0.00	0.00	0.00	0.00	0	0	0	0	20.5857	0	0	0	0
3528	34.74	20.30	20.30	-14.00	1.0200	100.00	1	41.90	18.60	0.00	0.00	0.00	0.00	0.00	0.00	0	0	0	0	41.9000	0	0	0	0
3528	34.74	20.30	20.30	-14.00	1.0200	100.00	1	41.90	18.60	0.00	0.00	0.00	0.00	0.00	0.00	0	0	0	0	41.9000	0	0	0	0
3528	34.74	20.30	20.30	-14.00	1.0200	100.00	1	41.90	18.60	0.00	0.00	0.00	0.00	0.00	0.00	0	0	0	0	41.9000	0	0	0	0
3528	34.74	20.30	20.30	-14.00	1.0200	100.00	1	41.90	18.60	0.00	0.00	0.00	0.00	0.00	0.00	0	0	0	0	41.9000	0	0	0	0
3528	34.74	20.30	20.30	-14.00	1.0200	100.00	1	41.90	18.60	0.00	0.00	0.00	0.00	0.00	0.00	0	0	0	0	41.9000	0	0	0	0
3528	34.74	20.30	20.30	-14.00	1.0200	100.00	1	41.90	18.60	0.00	0.00	0.00	0.00	0.00	0.00	0	0	0	0	41.9000	0	0	0	0
3528	34.74	20.30	20.30	-14.00	1.0200	100.00	1	41.90	18.60	0.00	0.00	0.00	0.00	0.00	0.00	0	0	0	0	41.9000	0	0	0	0
3528	34.74	20.30	20.30	-14.00	1.0200	100.00	1	41.90	18.60	0.00	0.00	0.00	0.00	0.00	0.00	0	0	0	0	41.9000	0	0	0	0
3528	34.74	20.30	20.30	-14.00	1.0200	100.00	1	41.90	18.60	0.00	0.00	0.00	0.00	0.00	0.00	0	0	0	0	41.9000	0	0	0	0
3528	34.74	20.30	20.30	-14.00	1.0200	100.00	1	41.90	18.60	0.00	0.00	0.00	0.00	0.00	0.00	0	0	0	0	41.9000	0	0	0	0
3528	17.07	12.76	12.76	-6.86	1.0200	100.00	1	20.59	15.10	0.00	0.00	0.00	0.00	0.00	0.00	0	0	0	0	20.5857	0	0	0	0
3528	19.73	14.70	14.70	-7.90	1.0200	100.00	1	23.80	17.60	0.00	0.00	0.00	0.00	0.00	0.00	0	0	0	0	23.8000	0	0	0	0
3528	19.73	14.70	14.70	-7.90	1.0200	100.00	1	23.80	17.30	0.00	0.00	0.00	0.00	0.00	0.00	0	0	0	0	23.8000	0	0	0	0
3528	19.73	14.70	14.70	-7.90	1.0200	100.00	1	23.80	17.00	0.00	0.00	0.00	0.00	0.00	0.00	0	0	0	0	23.8000	0	0	0	0
3528	19.73	14.70	14.70	-7.90	1.0200	100.00	1	23.80	16.90	0.00	0.00	0.00	0.00	0.00	0.00	0	0	0	0	23.8000	0	0	0	0
3528	17.07	12.76	12.76	-6.86	1.0200	100.00	1	20.59	15.10	0.00	0.00	0.00	0.00	0.00	0.00	0	0	0	0	20.5857	0	0	0	0
3528	17.07	12.76	12.76	-6.86	1.0200	100.00	1	20.59	15.10	0.00	0.00	0.00	0.00	0.00	0.00	0	0	0	0	20.5857	0	0	0	0
3528	17.07	12.76	12.76	-6.86	1.0200	100.00	1	20.59	15.10	0.00	0.00	0.00	0.00	0.00	0.00	0	0	0	0	20.5857	0	0	0	0
3528	17.07	12.76	12.76	-6.86	1.0200	100.00	1	20.59	15.10	0.00	0.00	0.00	0.00	0.00	0.00	0	0	0	0	20.5857	0	0	0	0
3528	17.07	12.76	12.76	-6.86	1.0200	100.00	1	20.59	15.10	0.00	0.00	0.00	0.00	0.00	0.00	0	0	0	0	20.5857	0	0	0	0
3528	34.74	20.30	20.30	-14.00	1.0200	100.00	1	41.90	18.60	0.00	0.00	0.00	0.00	0.00	0.00	0	0	0	0	41.9000	0	0	0	0
3528	34.74	20.30	20.30	-14.00	1.0200	100.00	1	41.90	18.60	0.00	0.00	0.00	0.00	0.00	0.00	0	0	0	0	41.9000	0	0	0	0
3529	11.40	8.53	16.23	-7.22	1.0200	100.00	1	21.65	4.67	0.00	0.00	0.00	0.00	0.00	0.00	0	0	0	0	21.6500	0	0	0	0
3529	13.53	8.53	19.20	-8.50	1.0200	100.00	1	25.60	5.00	0.00	0.00	0.00	0.00	0.00	0.00	0	0	0	0	25.6000	0	0	0	0
3529	11.40	8.53	16.23	-7.22	1.0200	100.00	1	21.65	4.67	0.00	0.00	0.00	0.00	0.00	0.00	0	0	0	0	21.6500	0	0	0	0
3529	11.40	8.53	16.23	-7.22	1.0200	100.00	1	21.65	4.67	0.00	0.00	0.00	0.00	0.00	0.00	0	0	0	0	21.6500	0	0	0	0
3529	11.40	8.53	16.23	-7.22	1.0200	100.00	1	21.65	4.67	0.00	0.00	0.00	0.00	0.00	0.00	0	0	0	0	21.6500	0	0	0	0
3529	11.40	8.53	16.23	-7.22	1.0200	100.00	1	21.65	4.67	0.00	0.00	0.00	0.00	0.00	0.00	0	0	0	0	21.6500	0	0	0	0
3529	11.40	8.53	16.23	-7.22	1.0200	100.00	1	21.65	4.67	0.00	0.00	0.00	0.00	0.00	0.00	0	0	0	0	21.6500	0	0	0	0
3529	13.53	8.53	19.20	-8.50	1.0200	100.00	1	25.60	5.00	0.00	0.00	0.00	0.00	0.00	0.00	0	0	0	0	25.6000	0	0	0	0
3529	13.53	8.53	19.20	-8.50	1.0200	100.00	1	25.60	5.00	0.00	0.00	0.00	0.00	0.00	0.00	0	0	0	0	25.6000	0	0	0	0
3529	13.53	8.53	19.20	-8.50	1.0200	100.00	1	25.60	5.00	0.00	0.00	0.00	0.00	0.00	0.00	0	0	0	0	25.6000	0	0	0	0
3530	126.00	-1.03	55.60	-55.60	1.0200	100.00	1	126.00	6.30	0.00	0.00	0.00	0.00	0.00	0.00	0	0	0	0	0.0000	0	0	0	0
3531	37.00	0.00	0.00	0.00	1.0200	100.00	1	40.00	35.00	0.00	0.00	0.00	0.00	0.00	0.00	0	0	0	0	40.0000	0	0	0	0
3531	37.00	0.00	0.00	0.00	1.0200	100.00	1	40.00	35.00	0.00	0.00	0.00	0.00	0.00	0.00	0	0	0	0	40.0000	0	0	0	0
3531	100.32	0.00	0.00	0.00	1.0200	100.00	1	121.00	90.00	0.00	0.00	0.00	0.00	0.00	0.00	0	0	0	0	121.0000	0	0	0	0
3531	100.32	0.00	0.00	0.00	1.0200	100.00	1	121.00	90.00	0.00	0.00	0.00	0.00	0.00	0.00	0	0	0	0	121.0000	0	0	0	0
3532	94.52	64.60	64.60	-38.00	1.0200	100.00	1	114.00	28.50	0.00	0.00	0.00	0.00	0.00	0.00	0	0	0	0	114.0000	0	0	0	0
3532	94.52	64.60	64.60	-38.00	1.0200	100.00	1	114.00	28.50	0.00	0.00	0.00	0.00	0.00	0.00	0	0	0	0	114.0000	0	0	0	0
3532	46.85	26.60	26.60	-18.30	1.0200	100.00	1	55.00	44.10	0.00	0.00	0.00	0.00	0.00	0.00	0	0	0	0	55.0000	0	0	0	0
3532	45.60	26.60	26.60	-18.30	1.0200	100.00	1	55.00	40.00	0.00	0.00	0.00	0.00	0.00	0.00	0	0	0	0	55.0000	0	0	0	0
3533	92.86	-2.44	69.40	-37.30	1.0200	100.00	1	112.00	40.00	0.00	0.00	0.00	0.00	0.00	0.00	0	0	0	0	112.0000	0	0	0	0
3534	112.00	29.14	49.40	-49.40	1.0200	100.00	1	112.00	0.00	0.00	0.00	0.00	0.00	0.00	0.00	0	0	0	0	0.0000	0	0	0	0
3535	46.43	0.00	0.00	0.00	1.0200	100.00	1	56.00	1.00	0.00	0.00	0.00	0.00	0.00	0.00	0	0	0	0	56.0000	0	0	0	0
3535	89.54	0.00	0.00	0.00	1.0200	100.00	1	108.00	1.00	0.00	0.00	0.00	0.00	0.00	0.00	0	0	0	0	108.0000	0	0	0	0
3536	106.50	-13.65	47.00	-47.00	1.0200	100.00	1	106.50	5.32	0.00	0.00	0.00	0.00	0.00	0.00	0	0	0	0	0.0000	0	0	0	0
3537	78.37	15.09	35.70	-35.70	1.0200	100.00	1	81.00	4.05	0.00	0.00	0.00	0.00	0.00	0.00	0	0	0	0	0.0000	0	0	0	0
3537	100.50	15.09	44.30	-44.30	1.0200	100.00	1	100.50	0.00	0.00	0.00	0.00	0.00	0.00	0.00	0	0	0	0	0.0000	0	0	0	0
3538	100.50	19.20	44.30	-44.30	1.0200	100.00	1	100.50	0.00	0.00	0.00	0.00	0.00	0.00	0.00	0	0	0	0	0.0000	0	0	0	0
3539	33.50	57.50	57.50	-33.30	1.0200	100.00	1	100.00	28.50	0.00	0.00	0.00	0.00	0.00	0.00	0	0	0	0	100.0000	0	0	0	0
3540	97.50	10.84	43.00	-43.00	1.0200	100.00	1	97.50	0.00	0.00	0.00	0.00	0.00	0.00	0.00	0	0	0	0	0.0000	0	0	0	0
3541	180.41	28.07	134.90	-72.50	1.0200	100.00	1	217.60	85.00	0.00	0.00	0.00	0.00	0.00	0.00	0	0	0	0	217.6000	0	0	0	0
3541	180.41	28.07	134.90	-72.50	1.0200	100.00	1	217.60	85.00	0.00	0.00	0.00	0.00	0.00	0.00	0	0	0	0	217.6000	0	0	0	0
3541	79.59	28.07	72.00	-32.00	1.0200	100.00	1	96.00	35.00	0.00	0.00	0.00	0.00	0.00	0.00	0	0	0	0	96.0000	0	0	0	0
3541	79.59	28.07	72.00	-32.00	1.0200	100.00	1	96.00	35.00	0.00	0.00	0.00	0.00	0.00	0.00	0	0	0	0	96.0000	0	0	0	0
3542	44.76	-31.70	46.10	-31.70	1.0200	100.00	1	95.20	40.00	0.00	0.00	0.00	0.00	0.00	0.00	0	0	0	0	95.2000	0	0	0	0
3542	44.76	-31.70	46.10	-31.70	1.0200	100.00	1	95.20	40.00	0.00	0.00	0.00	0.00	0.00	0.00	0	0	0	0	95.2000	0	0	0	0
3542	30.28	-31.70	46.10	-31.70	1.0200	100.00	1	95.20	10.00	0.00	0.00	0.00	0.00	0.00	0.00	0	0	0	0	95.2000	0	0	0	0
3543	40.75	19.41	34.10	-18.30	1.0200	100.00	1	55.00	38.00	0.00	0.00	0.00	0.00	0.00	0.00	0	0	0	0	55.0000	0	0	0	0
3543	73.60	19.41	57.00	-30.70	1.0200	100.00	1	92.00	69.00	0.00	0.00	0.00	0.00	0.00	0.00	0	0	0	0	92.0000	0	0	0	0
3544	87.09	-10.77	38.60	-38.60	1.0200	100.00	1	87.50	0.00	0.00	0.00	0.00	0.00	0.00	0.00	0	0	0	0	0.0000	0	0	0	0
3545	72.08	27.58	59.60	-26.50	1.0200	100.00	1	79.50	68.10	0.00	0.00	0.00	0.00	0.00	0.00	0	0	0	0	79.5000	0	0	0	0
3545	70.38	27.58	59.60	-26.50	1.0200	100.00	1	79.50	66.40	0.00	0.00	0.00	0.00	0.00	0.00	0	0	0	0	79.5000	0	0	0	0
3545	69.88	27.58	59.60	-26.50	1.0200	100.00	1	79.50	65.90	0.00	0.00	0.00	0.00	0.00	0.00	0	0	0	0	79.5000	0	0	0	0
3547	77.46	36.97	91.20	-49.00	1.0200	100.00	1	147.10	40.00	0.00	0.00	0.00	0.00	0.00	0.00	0	0	0	0	147.1000	0	0	0	0
3547	126.06	36.97	148.40	-79.80	1.0200	100.00	1	239.40	60.00	0.00	0.00	0.00	0.00	0.00	0.00	0	0	0	0	239.4000	0	0	0	0
3547	37.91	36.97	44.60	-24.00	1.0200	100.00	1	72.00	20.00	0.00	0.00	0.00	0.00	0.00	0.00	0	0	0	0	72.0000	0	0	0	0
3547	38.70	36.97	45.60	-24.50	1.0200	100.00	1	73.50	20.00	0.00	0.00	0.00	0.00	0.00	0.00	0	0	0	0	73.5000	0	0	0	0
3548	31.78	-10.61	17.20	-11.90	1.0200	100.00	1	35.60	30.00	0.00	0.00	0.00	0.00	0.00	0.00	0	0	0	0	35.6000	0	0	0	0
3548	49.33	-10.61	32.20	-22.20	1.0200	100.00	1	66.50	46.00	0.00	0.00	0.00	0.00	0.00	0.00	0	0	0	0	66.5000	0	0	0	0
3549	52.11	32.10	32.10	-22.10	1.0200	100.00	1	66.20	48.80	0.00	0.00	0.00	0.00	0.00	0.00	0	0	0	0	66.2000	0	0	0	0
3549	36.69	23.10	23.10	-15.90	1.0200	100.00	1	47.70	34.30	0.00	0.00	0.00	0.00	0.00	0.00	0	0	0	0	47.7000	0	0	0	0
3550	48.28	31.70	31.70	-21.80	1.0200	100.00	1	65.50	45.00	0.00	0.00	0.00	0.00	0.00	0.00	0	0	0	0	65.5000	0	0	0	0
3550	26.86	18.00	18.00	-12.40	1.0200	100.00	1	37.20	25.00	0.00	0.00	0.00	0.00	0.00	0.00	0	0	0	0	37.2000	0	0	0	0
3551	50.21	31.10	31.10	-21.40	1.0200	100.00	1	64.20	47.00	0.00	0.00	0.00	0.00	0.00	0.00	0	0	0	0	64.2000	0	0	0	0
3551	37.39	23.10	23.10	-15.90	1.0200	100.00	1	47.70	35.00	0.00	0.00	0.00	0.00	0.00	0.00	0	0	0	0	47.7000	0	0	0	0
3552	50.16	19.90	19.90	-19.90	1.0200	100.00	1	60.50	25.00	0.00	0.00	0.00	0.00	0.00	0.00	0	0	0	0	60.5000	0	0	0	0
3555	9.99	44.80	44.80	-19.90	1.0200	100.00	1	59.70	7.00	0.00	0.00	0.00	0.00	0.00	0.00	0	0	0	0	59.7000	0	0	0	0
3556	36.56	20.00	20.00	-13.70	1.0200	100.00	1	41.20	34.50	0.00	0.00	0.00	0.00	0.00	0.00	0	0	0	0	41.2000	0	0	0	0
3556	47.37	27.80	27.80	-19.10	1.0200	100.00	1	57.40	44.50	0.00	0.00	0.00	0.00	0.00	0.00	0	0	0	0	57.4000	0	0	0	0
3557	18.13	0.00	0.00	0.00	1.0200	100.00	1	57.00	1.00	0.00	0.00	0.00	0.00	0.00	0.00	0	0	0	0	57.0000	0	0	0	0
3557	18.13	0.00	0.00	0.00	1.0200	100.00	1	57.00	1.00	0.00	0.00	0.00	0.00	0.00	0.00	0	0	0	0	57.0000	0	0	0	0
3557	18.13	0.00	0.00	0.00	1.0200	100.00	1	57.00	1.00	0.00	0.00	0.00	0.00	0.00	0.00	0	0	0	0	57.0000	0	0	0	0
3557	18.13	0.00	0.00	0.00	1.0200	100.00	1	57.00	1.00	0.00	0.00	0.00	0.00	0.00	0.00	0	0	0	0	57.0000	0	0	0	0
3557	18.13	0.00	0.00	0.00	1.0200	100.00	1	57.00	1.00	0.00	0.00	0.00	0.00	0.00	0.00	0	0	0	0	57.0000	0	0	0	0
3557	18.13	0.00	0.00	0.00	1.0200	100.00	1	57.00	1.00	0.00	0.00	0.00	0.00	0.00	0.00	0	0	0	0	57.0000	0	0	0	0
3557	18.13	0.00	0.00	0.00	1.0200	100.00	1	57.00	1.00	0.00	0.00	0.00	0.00	0.00	0.00	0	0	0	0	57.0000	0	0	0	0
3557	18.13	0.00	0.00	0.00	1.0200	100.00	1	57.00	1.00	0.00	0.00	0.00	0.00	0.00	0.00	0	0	0	0	57.0000	0	0	0	0
3557	18.13	0.00	0.00	0.00	1.0200	100.00	1	57.00	1.00	0.00	0.00	0.00	0.00	0.00	0.00	0	0	0	0	57.0000	0	0	0	0
3557	18.13	0.00	0.00	0.00	1.0200	100.00	1	57.00	1.00	0.00	0.00	0.00	0.00	0.00	0.00	0	0	0	0	57.0000	0	0	0	0
3557	18.13	0.00	0.00	0.00	1.0200	100.00	1	57.00	1.00	0.00	0.00	0.00	0.00	0.00	0.00	0	0	0	0	57.0000	0	0	0	0
3557	18.13	0.00	0.00	0.00	1.0200	100.00	1	57.00	1.00	0.00	0.00	0.00	0.00	0.00	0.00	0	0	0	0	57.0000	0	0	0	0
3557	18.13	0.00	0.00	0.00	1.0200	100.00	1	57.00	1.00	0.00	0.00	0.00	0.00	0.00	0.00	0	0	0	0	57.0000	0	0	0	0
3557	18.13	0.00	0.00	0.00	1.0200	100.00	1	57.00	1.00	0.00	0.00	0.00	0.00	0.00	0.00	0	0	0	0	57.0000	0	0	0	0
3557	18.13	0.00	0.00	0.00	1.0200	100.00	1	57.00	1.00	0.00	0.00	0.00	0.00	0.00	0.00	0	0	0	0	57.0000	0	0	0	0
3557	18.13	0.00	0.00	0.00	1.0200	100.00	1	57.00	1.00	0.00	0.00	0.00	0.00	0.00	0.00	0	0	0	0	57.0000	0	0	0	0
3558	47.01	27.50	27.50	-18.90	1.0200	100.00	1	56.70	41.80	0.00	0.00	0.00	0.00	0.00	0.00	0	0	0	0	56.7000	0	0	0	0
3558	47.01	27.50	27.50	-18.90	1.0200	100.00	1	56.70	35.10	0.00	0.00	0.00	0.00	0.00	0.00	0	0	0	0	56.7000	0	0	0	0
...
];

%% generator cost data
mpc.gencost = [
2	0	0	4	0.0000	0.000	4.120	0.00
2	0	0	4	0.0000	0.000	4.120	0.00
2	0	0	4	0.0000	0.009	67.576	7910.30
2	0	0	4	0.0000	0.009	67.576	7910.30
2	0	0	4	0.0000	0.009	67.576	7760.90
2	0	0	4	0.0000	0.000	4.120	0.00
2	0	0	4	0.0000	0.002	13.100	1017.57
2	0	0	4	0.0000	0.000	4.120	0.00
2	0	0	4	0.0000	0.000	4.120	0.00
2	0	0	4	0.0000	0.003	21.147	1515.90
2	0	0	4	0.0000	0.003	21.147	1515.90
2	0	0	4	0.0000	0.003	21.162	1517.34
2	0	0	4	0.0000	0.003	21.162	1517.34
2	0	0	4	0.0000	0.000	0.000	0.00
2	0	0	4	0.0000	0.032	9.547	2249.86
2	0	0	4	0.0000	0.009	13.659	2130.63
2	0	0	4	0.0000	0.009	13.659	2130.63
2	0	0	4	0.0000	0.009	18.772	588.04
2	0	0	4	0.0000	0.009	18.772	588.04
2	0	0	4	0.0000	0.009	18.772	588.04
2	0	0	4	0.0000	0.006	21.000	910.45
2	0	0	4	0.0000	0.006	20.999	910.45
2	0	0	4	0.0000	0.006	20.999	910.45
2	0	0	4	0.0000	0.006	20.999	910.45
2	0	0	4	0.0000	0.003	21.105	1293.20
2	0	0	4	0.0000	0.006	21.188	854.99
2	0	0	4	0.0000	0.011	22.239	528.37
2	0	0	4	0.0000	0.005	60.757	2894.55
2	0	0	4	0.0000	0.005	60.757	2894.55
2	0	0	4	0.0000	0.005	60.757	2894.55
2	0	0	4	0.0000	0.005	60.757	2894.55
2	0	0	4	0.0000	0.005	60.757	2894.55
2	0	0	4	0.0000	0.011	22.239	528.37
2	0	0	4	0.0000	0.005	60.757	2894.55
2	0	0	4	0.0000	0.005	60.757	2894.55
2	0	0	4	0.0000	0.005	60.757	2894.55
2	0	0	4	0.0000	0.005	60.757	2894.55
2	0	0	4	0.0000	0.005	60.757	2894.55
2	0	0	4	0.0000	0.005	60.757	2894.55
2	0	0	4	0.0000	0.005	60.757	2894.55
2	0	0	4	0.0000	0.032	9.547	2249.86
2	0	0	4	0.0000	0.032	9.547	2249.86
2	0	0	4	0.0000	0.032	9.547	2249.86
2	0	0	4	0.0000	0.026	11.398	993.75
2	0	0	4	0.0000	0.026	11.398	993.75
2	0	0	4	0.0000	0.026	11.398	993.75
2	0	0	4	0.0000	0.009	14.879	303.56
2	0	0	4	0.0000	0.009	14.879	303.56
2	0	0	4	0.0000	0.009	14.879	303.56
2	0	0	4	0.0000	0.009	14.879	303.56
2	0	0	4	0.0000	0.032	9.547	2249.86
2	0	0	4	0.0000	0.009	18.772	588.04
2	0	0	4	0.0000	0.011	22.030	553.15
2	0	0	4	0.0000	0.014	22.796	451.55
2	0	0	4	0.0000	0.005	60.757	2894.55
2	0	0	4	0.0000	0.005	60.757	2894.55
2	0	0	4	0.0000	0.012	22.317	521.25
2	0	0	4	0.0000	0.006	20.999	910.45
2	0	0	4	0.0000	0.006	20.962	920.03
2	0	0	4	0.0000	0.006	20.962	920.03
2	0	0	4	0.0000	0.032	9.547	2249.86
2	0	0	4	0.0000	0.032	9.547	2249.86
2	0	0	4	0.0000	0.053	14.879	51.34
2	0	0	4	0.0000	0.053	14.879	51.34
2	0	0	4	0.0000	0.053	14.879	51.34
2	0	0	4	0.0000	0.053	14.879	51.34
2	0	0	4	0.0000	0.053	14.879	51.34
2	0	0	4	0.0000	0.032	9.547	2249.86
2	0	0	4	0.0000	0.032	9.547	2249.86
2	0	0	4	0.0000	0.026	11.398	993.75
2	0	0	4	0.0000	0.026	13.537	318.86
2	0	0	4	0.0000	0.026	13.537	318.86
2	0	0	4	0.0000	0.026	13.537	318.86
2	0	0	4	0.0000	0.026	13.537	318.86
2	0	0	4	0.0000	0.026	13.537	318.86
2	0	0	4	0.0000	0.026	13.537	318.86
2	0	0	4	0.0000	0.026	13.537	318.86
2	0	0	4	0.0000	0.032	9.547	2249.86
2	0	0	4	0.0000	0.009	18.772	588.04
2	0	0	4	0.0000	0.026	13.537	318.86
2	0	0	4	0.0000	0.026	13.537	318.86
2	0	0	4	0.0000	0.026	13.537	318.86
2	0	0	4	0.0000	0.026	13.537	318.86
2	0	0	4	0.0000	0.026	13.537	318.86
2	0	0	4	0.0000	0.026	13.537	318.86
2	0	0	4	0.0000	0.026	13.537	318.86
2	0	0	4	0.0000	0.026	13.537	318.86
2	0	0	4	0.0000	0.032	9.547	2249.86
2	0	0	4	0.0000	0.032	9.547	2249.86
2	0	0	4	0.0000	0.026	11.398	993.75
2	0	0	4	0.0000	0.032	9.547	2249.86
2	0	0	4	0.0000	0.032	9.547	2249.86
2	0	0	4	0.0000	0.009	18.772	588.04
2	0	0	4	0.0000	0.032	9.547	2249.86
2	0	0	4	0.0000	0.032	9.547	2249.86
2	0	0	4	0.0000	0.032	9.547	2249.86
2	0	0	4	0.0000	0.032	9.547	2249.86
2	0	0	4	0.0000	0.009	18.772	588.04
2	0	0	4	0.0000	0.009	18.772	588.04
2	0	0	4	0.0000	0.008	14.126	308.53
2	0	0	4	0.0000	0.009	14.339	279.82
2	0	0	4	0.0000	0.010	59.305	1952.10
2	0	0	4	0.0000	0.026	13.537	318.86
2	0	0	4	0.0000	0.026	13.537	318.86
2	0	0	4	0.0000	0.026	13.537	318.86
2	0	0	4	0.0000	0.026	13.537	318.86
2	0	0	4	0.0000	0.026	13.537	318.86
2	0	0	4	0.0000	0.026	13.537	318.86
2	0	0	4	0.0000	0.026	13.537	318.86
2	0	0	4	0.0000	0.026	13.537	318.86
2	0	0	4	0.0000	0.026	13.537	318.86
2	0	0	4	0.0000	0.026	13.537	318.86
2	0	0	4	0.0000	0.010	59.305	1952.10
2	0	0	4	0.0000	0.008	50.578	1755.23
2	0	0	4	0.0000	0.008	50.578	1755.23
2	0	0	4	0.0000	0.008	50.578	1755.23
2	0	0	4	0.0000	0.008	50.578	1755.23
2	0	0	4	0.0000	0.010	59.305	1952.10
2	0	0	4	0.0000	0.010	59.305	1952.10
2	0	0	4	0.0000	0.010	59.305	1952.10
2	0	0	4	0.0000	0.010	59.305	1952.10
2	0	0	4	0.0000	0.010	59.305	1952.10
2	0	0	4	0.0000	0.026	13.537	318.86
2	0	0	4	0.0000	0.026	13.537	318.86
2	0	0	4	0.0000	0.011	14.588	242.67
2	0	0	4	0.0000	0.059	16.010	52.21
2	0	0	4	0.0000	0.011	14.588	242.67
2	0	0	4	0.0000	0.011	14.588	242.67
2	0	0	4	0.0000	0.011	14.588	242.67
2	0	0	4	0.0000	0.011	14.588	242.67
2	0	0	4	0.0000	0.011	14.588	242.67
2	0	0	4	0.0000	0.059	16.010	52.21
2	0	0	4	0.0000	0.059	16.010	52.21
2	0	0	4	0.0000	0.059	16.010	52.21
2	0	0	4	0.0000	0.000	0.000	0.00
2	0	0	4	0.0000	0.053	14.879	51.34
2	0	0	4	0.0000	0.053	14.879	51.34
2	0	0	4	0.0000	0.009	18.772	588.04
2	0	0	4	0.0000	0.009	18.772	588.04
2	0	0	4	0.0000	0.020	23.517	345.06
2	0	0	4	0.0000	0.020	23.517	345.06
2	0	0	4	0.0000	0.008	50.578	1755.23
2	0	0	4	0.0000	0.008	50.578	1755.23
2	0	0	4	0.0000	0.013	14.815	205.59
2	0	0	4	0.0000	0.000	0.000	0.00
2	0	0	4	0.0000	0.053	14.879	51.34
2	0	0	4	0.0000	0.009	18.772	588.04
2	0	0	4	0.0000	0.000	0.000	0.00
2	0	0	4	0.0000	0.000	0.000	0.00
2	0	0	4	0.0000	0.000	0.000	0.00
2	0	0	4	0.0000	0.000	0.000	0.00
2	0	0	4	0.0000	0.023	23.778	307.35
2	0	0	4	0.0000	0.000	0.000	0.00
2	0	0	4	0.0000	0.006	13.780	394.44
2	0	0	4	0.0000	0.006	13.780	394.44
2	0	0	4	0.0000	0.015	14.988	183.37
2	0	0	4	0.0000	0.015	14.988	183.37
2	0	0	4	0.0000	0.009	18.772	588.04
2	0	0	4	0.0000	0.009	18.772	588.04
2	0	0	4	0.0000	0.009	18.772	588.04
2	0	0	4	0.0000	0.053	14.879	51.34
2	0	0	4	0.0000	0.009	18.772	588.04
2	0	0	4	0.0000	0.000	0.000	0.00
2	0	0	4	0.0000	0.008	50.578	1755.23
2	0	0	4	0.0000	0.008	50.578	1755.23
2	0	0	4	0.0000	0.008	50.578	1755.23
2	0	0	4	0.0000	0.016	22.933	420.13
2	0	0	4	0.0000	0.009	21.782	648.29
2	0	0	4	0.0000	0.034	24.774	227.82
2	0	0	4	0.0000	0.033	24.711	231.82
2	0	0	4	0.0000	0.053	14.879	51.34
2	0	0	4	0.0000	0.053	14.879	51.34
2	0	0	4	0.0000	0.053	14.879	51.34
2	0	0	4	0.0000	0.053	14.879	51.34
2	0	0	4	0.0000	0.053	14.879	51.34
2	0	0	4	0.0000	0.053	14.879	51.34
2	0	0	4	0.0000	0.053	14.879	51.34
2	0	0	4	0.0000	0.053	14.879	51.34
2	0	0	4	0.0000	0.026	13.537	318.86
2	0	0	4	0.0000	0.000	0.000	0.00
2	0	0	4	0.0000	0.053	14.879	51.34
2	0	0	4	0.0000	0.053	14.879	51.34
2	0	0	4	0.0000	0.062	14.879	43.97
2	0	0	4	0.0000	0.062	14.879	43.97
2	0	0	4	0.0000	0.062	14.879	43.97
2	0	0	4	0.0000	0.062	14.879	43.97
2	0	0	4	0.0000	0.062	14.879	43.97
2	0	0	4	0.0000	0.062	14.879	43.97
2	0	0	4	0.0000	0.062	14.879	43.97
2	0	0	4	0.0000	0.062	14.879	43.97
2	0	0	4	0.0000	0.062	14.879	43.97
2	0	0	4	0.0000	0.062	14.879	43.97
2	0	0	4	0.0000	0.062	14.879	43.97
2	0	0	4	0.0000	0.062	14.879	43.97
2	0	0	4	0.0000	0.062	14.879	43.97
2	0	0	4	0.0000	0.062	14.879	43.97
2	0	0	4	0.0000	0.062	14.879	43.97
2	0	0	4	0.0000	0.062	14.879	43.97
2	0	0	4	0.0000	0.008	50.578	1755.23
2	0	0	4	0.0000	0.008	50.578	1755.23
...
];

%% branch data
mpc.branch = [
123	4232	0.010192	0.076440	0.02076	219.00	229.90	240.90	0.00000	0.000	1	0.00	0.00	0.00	0.00	0.00	-2.06	0	0	0	0
187	3532	0.008740	0.086740	0.02360	284.00	298.20	312.40	0.00000	0.000	1	0.00	0.00	0.00	0.00	0.00	-2.33	0	0	0	0
239	76466	0.004449	0.049563	0.19234	794.00	833.70	873.40	0.00000	0.000	1	0.00	0.00	0.00	0.00	0.00	-19.43	0	0	0	0
338	8443	0.000900	0.008770	0.00578	476.00	499.80	523.60	0.00000	0.000	1	0.00	0.00	0.00	0.00	0.00	-0.53	0	0	0	0
845	8079	0.025135	0.188510	0.04560	219.00	229.90	240.90	0.00000	0.000	1	0.00	0.00	0.00	0.00	0.00	-4.40	0	0	0	0
1380	4243	0.003180	0.056550	0.02844	650.00	682.50	715.00	0.00000	0.000	1	0.00	0.00	0.00	0.00	0.00	-2.75	0	0	0	0
1761	76540	0.009315	0.105000	0.19308	491.00	515.50	540.10	0.00000	0.000	1	0.00	0.00	0.00	0.00	0.01	-20.16	0	0	0	0
1761	76540	0.009315	0.105000	0.19308	491.00	515.50	540.10	0.00000	0.000	1	0.00	0.00	0.00	0.00	0.01	-20.16	0	0	0	0
3338	7416	0.003959	0.029690	0.00920	238.00	249.90	261.80	0.00000	0.000	1	0.00	0.00	0.00	0.00	0.00	-0.92	0	0	0	0
3362	3542	0.000676	0.012043	0.12494	1046.00	1098.30	1150.60	0.00000	0.000	1	0.00	0.00	32.08	105.89	-32.00	-117.64	0	0	0	0
3362	3557	0.004287	0.042637	0.73549	1097.00	1151.90	1206.70	0.00000	0.000	1	0.00	0.00	-16.04	-52.94	16.06	-26.58	0	0	0	0
3362	3557	0.004287	0.042637	0.73549	1097.00	1151.90	1206.70	0.00000	0.000	1	0.00	0.00	-16.04	-52.94	16.06	-26.58	0	0	0	0
3433	8218	0.001869	0.019974	0.29369	1097.00	1151.90	1206.70	0.00000	0.000	1	0.00	0.00	0.00	0.00	0.00	-31.27	0	0	0	0
3433	8218	0.001869	0.019974	0.29369	1097.00	1151.90	1206.70	0.00000	0.000	1	0.00	0.00	0.00	0.00	0.00	-31.27	0	0	0	0
3502	3503	0.000000	0.000010	0.00004	736.00	772.80	809.60	0.00000	0.000	1	0.00	0.00	-326.15	11.81	326.15	-11.80	0	0	0	0
3502	3509	0.000120	0.002035	0.04420	1877.00	1970.80	2064.70	0.00000	0.000	1	0.00	0.00	1068.25	215.50	-1066.88	-196.83	0	0	0	0
3502	76453	0.000264	0.018498	0.00000	800.00	800.00	800.00	1.00000	0.000	1	0.00	0.00	396.43	164.59	-395.97	-131.83	0	0	0	0
3503	7549	0.000216	0.002458	0.02219	1300.00	1300.00	1300.00	0.00000	0.000	1	0.00	0.00	390.36	220.41	-389.94	-217.94	0	0	0	0
3503	76454	0.000157	0.011764	0.00000	850.00	850.00	850.00	1.00000	0.000	1	0.00	0.00	295.49	137.40	-295.33	-125.39	0	0	0	0
3504	3526	0.000287	0.003314	0.02905	736.00	772.80	809.60	0.00000	0.000	1	0.00	0.00	-315.20	27.41	315.48	-27.24	0	0	0	0
3504	5646	0.001741	0.031506	0.49912	1536.00	1612.80	1689.60	0.00000	0.000	1	0.00	0.00	529.79	37.74	-525.03	-2.66	0	0	0	0
3504	6694	0.000039	0.000401	0.00630	1097.00	1151.90	1206.70	0.00000	0.000	1	0.00	0.00	-52.23	97.14	52.24	-97.75	0	0	0	0
3504	76456	0.000190	0.013332	0.00000	750.00	750.00	750.00	1.00000	0.000	1	0.00	0.00	214.57	16.99	-214.49	-11.05	0	0	0	0
3505	6819	0.000032	0.000297	0.00117	931.00	931.00	931.00	0.00000	0.000	1	0.00	0.00	342.27	-57.91	-342.24	58.15	0	0	0	0
3505	76457	0.000389	0.027247	0.00000	1000.00	1000.00	1000.00	1.00000	0.000	1	0.00	0.00	145.65	57.91	-145.55	-51.21	0	0	0	0
3506	3508	0.000003	0.000041	0.00071	1419.00	1489.90	1560.90	0.00000	0.000	1	0.00	0.00	465.25	96.99	-465.24	-96.97	0	0	0	0
3506	6698	0.000335	0.003871	0.03394	736.00	772.80	809.60	0.00000	0.000	1	0.00	0.00	261.47	-15.78	-261.25	14.80	0	0	0	0
3506	76458	0.000359	0.026907	0.00000	550.00	550.00	550.00	1.00000	0.000	1	0.00	0.00	155.29	9.20	-155.20	-2.94	0	0	0	0
3507	6690	0.011404	0.111220	0.39768	431.00	467.50	504.10	0.00000	0.000	1	0.00	0.00	-224.87	34.28	230.74	-18.24	0	0	0	0
3507	76460	0.001238	0.054486	0.00000	200.00	200.00	200.00	1.00000	0.000	1	0.00	0.00	115.20	27.47	-115.03	-20.13	0	0	0	0
3507	76542	0.003446	0.022368	0.04456	766.00	784.30	802.60	0.00000	0.000	1	0.00	0.00	239.85	5.68	-237.94	2.10	0	0	0	0
3508	3526	0.000129	0.001824	0.01739	868.00	911.40	954.80	0.00000	0.000	1	0.00	0.00	243.38	-20.44	-243.31	19.68	0	0	0	0
3508	4207	0.002085	0.037525	0.73554	1877.00	1970.80	2064.70	0.00000	0.000	1	0.00	0.00	690.46	82.31	-680.61	20.31	0	0	0	0
3508	6525	0.000951	0.016746	0.27836	1536.00	1612.80	1689.60	0.00000	0.000	1	0.00	0.00	751.25	115.05	-745.94	-49.88	0	0	0	0
3508	6694	0.000414	0.004540	0.04410	736.00	772.80	809.60	0.00000	0.000	1	0.00	0.00	322.82	-22.40	-322.40	22.38	0	0	0	0
3508	76462	0.000140	0.010525	0.00000	950.00	950.00	950.00	1.00000	0.000	1	0.00	0.00	358.43	32.87	-358.26	-19.77	0	0	0	0
3509	3510	0.001535	0.017729	0.15552	736.00	772.80	809.60	0.00000	0.000	1	0.00	0.00	-464.14	20.06	467.36	1.08	0	0	0	0
3509	3547	0.001525	0.016653	0.16359	736.00	772.80	809.60	0.00000	0.000	1	0.00	0.00	-252.60	-12.97	253.54	6.36	0	0	0	0
3509	6091	0.001862	0.021105	0.19233	736.00	772.80	809.60	0.00000	0.000	1	0.00	0.00	511.66	34.69	-506.89	-0.16	0	0	0	0
3509	7549	0.000174	0.003155	0.03154	1046.00	1098.30	1150.60	0.00000	0.000	1	0.00	0.00	-387.57	46.00	387.83	-44.57	0	0	0	0
3509	7568	0.000231	0.003674	0.06031	1419.00	1489.90	1560.90	0.00000	0.000	1	0.00	0.00	1092.59	300.24	-1089.70	-260.49	0	0	0	0
3509	8324	0.000750	0.010192	0.20690	1646.00	1728.30	1810.60	0.00000	0.000	1	0.00	0.00	939.68	194.46	-932.94	-123.69	0	0	0	0
3509	76463	0.000066	0.005263	0.00000	1900.00	1900.00	1900.00	1.00000	0.000	1	0.00	0.00	461.50	215.94	-461.33	-202.67	0	0	0	0
3510	3512	0.004148	0.045179	0.45093	736.00	772.80	809.60	0.00000	0.000	1	0.00	0.00	-99.71	-12.10	100.11	-30.44	0	0	0	0
3510	3516	0.002921	0.033143	0.30248	736.00	772.80	809.60	0.00000	0.000	1	0.00	0.00	-400.09	45.83	404.69	-25.10	0	0	0	0
3510	76466	0.000179	0.012499	0.00000	800.00	800.00	800.00	1.00000	0.000	1	0.00	0.00	491.04	139.97	-490.59	-108.65	0	0	0	0
3511	5579	0.010609	0.079570	0.02082	240.00	240.00	240.00	0.00000	0.000	1	0.00	0.00	115.22	2.38	-113.87	5.63	0	0	0	0
3511	5608	0.002808	0.021060	0.00557	240.00	240.00	240.00	0.00000	0.000	1	0.00	0.00	120.02	9.81	-119.63	-7.45	0	0	0	0
3511	5610	0.003515	0.026360	0.00723	230.00	241.50	253.00	0.00000	0.000	1	0.00	0.00	127.85	13.71	-127.29	-10.26	0	0	0	0
3511	5619	0.006660	0.050200	0.01393	238.00	249.90	261.80	0.00000	0.000	1	0.00	0.00	107.24	24.57	-106.47	-20.13	0	0	0	0
3511	8258	0.004430	0.037290	0.01105	261.00	274.00	287.10	0.00000	0.000	1	0.00	0.00	47.15	27.08	-47.03	-27.15	0	0	0	0
3511	76951	0.011899	0.089240	0.02139	240.00	240.00	240.00	0.00000	0.000	1	0.00	0.00	83.42	7.71	-82.61	-3.87	0	0	0	0
3512	7711	0.000912	0.011315	0.10487	792.00	831.60	871.20	0.00000	0.000	1	0.00	0.00	153.35	64.95	-153.10	-72.67	0	0	0	0
3512	76470	0.000783	0.042278	0.00000	350.00	350.00	350.00	1.00000	0.000	1	0.00	0.00	122.33	63.77	-122.19	-56.04	0	0	0	0
3513	7829	0.000450	0.005532	0.08863	1190.00	1249.50	1309.00	0.00000	0.000	1	0.00	0.00	987.97	152.59	-983.64	-108.49	0	0	0	0
3513	76472	0.000242	0.018180	0.00000	550.00	550.00	550.00	1.00000	0.000	1	0.00	0.00	295.46	106.07	-295.23	-88.85	0	0	0	0
3514	7541	0.000071	0.000700	0.01198	1097.00	1151.90	1206.70	0.00000	0.000	1	0.00	0.00	224.43	154.21	-224.37	-154.96	0	0	0	0
3514	7541	0.000071	0.000700	0.01198	1097.00	1151.90	1206.70	0.00000	0.000	1	0.00	0.00	224.43	154.21	-224.37	-154.96	0	0	0	0
3514	76475	0.000161	0.012869	0.00000	1150.00	1150.00	1150.00	1.00000	0.000	1	0.00	0.00	278.68	198.93	-278.50	-184.43	0	0	0	0
3515	5877	0.000277	0.001872	0.00345	366.00	384.30	402.60	0.00000	0.000	1	0.00	0.00	184.85	162.66	-184.69	-161.93	0	0	0	0
3515	76476	0.000264	0.019816	0.00000	550.00	550.00	550.00	1.00000	0.000	1	0.00	0.00	345.34	201.80	-344.93	-171.33	0	0	0	0
3516	8218	0.003601	0.035762	0.61546	1097.00	1151.90	1206.70	0.00000	0.000	1	0.00	0.00	27.89	-66.53	-27.82	2.46	0	0	0	0
3516	8218	0.003601	0.035762	0.61546	1097.00	1151.90	1206.70	0.00000	0.000	1	0.00	0.00	27.89	-66.53	-27.82	2.46	0	0	0	0
3516	76478	0.000329	0.024664	0.00000	600.00	600.00	600.00	1.00000	0.000	1	0.00	0.00	457.71	142.74	-456.98	-88.25	0	0	0	0
3517	3547	0.002327	0.032187	0.54724	1306.00	1371.30	1436.60	0.00000	0.000	1	0.00	0.00	319.04	-46.64	-316.74	21.72	0	0	0	0
3517	7711	0.001397	0.025867	0.24892	1046.00	1098.30	1150.60	0.00000	0.000	1	0.00	0.00	130.54	3.73	-130.31	-24.98	0	0	0	0
3517	76479	0.000949	0.049324	0.00000	300.00	300.00	300.00	1.00000	0.000	1	0.00	0.00	76.99	42.91	-76.92	-39.20	0	0	0	0
3518	8051	0.001848	0.013860	0.00393	205.00	215.20	225.50	0.00000	0.000	1	0.00	0.00	72.70	31.54	-72.58	-30.99	0	0	0	0
3518	8054	0.000403	0.003020	0.00110	205.00	215.20	225.50	0.00000	0.000	1	0.00	0.00	109.76	27.63	-109.71	-27.33	0	0	0	0
3518	8056	0.000720	0.006780	0.00205	284.00	298.20	312.40	0.00000	0.000	1	0.00	0.00	56.37	30.11	-56.34	-30.01	0	0	0	0
3519	4753	0.002200	0.016500	0.00434	205.00	215.20	225.50	0.00000	0.000	1	0.00	0.00	90.67	73.84	-90.37	-72.00	0	0	0	0
3519	5186	0.000280	0.004140	0.00202	567.00	595.30	623.70	0.00000	0.000	1	0.00	0.00	259.76	114.16	-259.54	-111.00	0	0	0	0
3519	6001	0.000729	0.005470	0.00138	240.00	240.00	240.00	0.00000	0.000	1	0.00	0.00	59.54	43.35	-59.50	-43.19	0	0	0	0
3519	6007	0.000508	0.003810	0.00096	240.00	240.00	240.00	0.00000	0.000	1	0.00	0.00	87.99	78.37	-87.92	-77.94	0	0	0	0
3519	6024	0.000079	0.000590	0.00018	240.00	240.00	240.00	0.00000	0.000	1	0.00	0.00	97.66	79.91	-97.65	-79.84	0	0	0	0
3519	6041	0.000100	0.000800	0.00022	250.00	262.50	275.00	0.00000	0.000	1	0.00	0.00	-42.05	100.76	42.06	-100.69	0	0	0	0
3520	3528	0.000025	0.000269	0.00264	811.00	811.00	811.00	0.00000	0.000	1	0.00	0.00	-502.60	-364.39	502.70	365.16	0	0	0	0
3520	3722	0.000055	0.000879	0.00904	970.00	1018.50	1067.00	0.00000	0.000	1	0.00	0.00	294.84	262.94	-294.76	-262.47	0	0	0	0
3520	6132	0.000130	0.001471	0.01339	736.00	772.80	809.60	0.00000	0.000	1	0.00	0.00	152.92	-123.50	-152.87	122.73	0	0	0	0
3520	6251	0.000235	0.002717	0.02382	736.00	772.80	809.60	0.00000	0.000	1	0.00	0.00	157.46	188.33	-157.31	-189.05	0	0	0	0
3520	76483	0.000190	0.013332	0.00000	750.00	750.00	750.00	1.00000	0.000	1	0.00	0.00	120.52	-10.33	-120.49	12.28	0	0	0	0
76484	3520	0.000438	0.032886	0.00000	450.00	450.00	450.00	1.00000	0.000	1	0.00	0.00	-154.06	-38.40	154.17	46.95	0	0	0	0
3521	3546	0.000262	0.003179	0.03081	792.00	831.60	871.20	0.00000	0.000	1	0.00	0.00	343.92	93.47	-343.60	-92.64	0	0	0	0
3521	7829	0.000214	0.003083	0.02829	868.00	911.40	954.80	0.00000	0.000	1	0.00	0.00	-214.35	82.76	214.46	-84.04	0	0	0	0
3521	76485	0.000438	0.032886	0.00000	450.00	450.00	450.00	1.00000	0.000	1	0.00	0.00	204.55	75.67	-204.35	-60.36	0	0	0	0
3522	3571	0.000000	0.000010	0.00004	736.00	772.80	809.60	0.00000	0.000	1	0.00	0.00	100.53	76.73	-100.53	-76.73	0	0	0	0
3522	76487	0.000285	0.022767	0.00000	650.00	650.00	650.00	1.00000	0.000	1	0.00	0.00	253.09	126.96	-252.87	-109.42	0	0	0	0
3523	5105	0.000119	0.001955	0.01903	970.00	1018.50	1067.00	0.00000	0.000	1	0.00	0.00	242.82	135.53	-242.73	-135.92	0	0	0	0
3523	6091	0.000066	0.001148	0.01242	1046.00	1098.30	1150.60	0.00000	0.000	1	0.00	0.00	103.91	71.61	-103.90	-72.68	0	0	0	0
3523	6132	0.000058	0.000657	0.00598	736.00	772.80	809.60	0.00000	0.000	1	0.00	0.00	72.64	187.62	-72.62	-187.96	0	0	0	0
3523	76488	0.000359	0.026907	0.00000	550.00	550.00	550.00	1.00000	0.000	1	0.00	0.00	208.78	72.94	-208.60	-59.85	0	0	0	0
3524	6819	0.000142	0.001122	0.00389	635.00	666.80	698.50	0.00000	0.000	1	0.00	0.00	-105.82	72.92	105.85	-73.13	0	0	0	0
3524	7240	0.000592	0.006385	0.01267	491.00	515.50	540.10	0.00000	0.000	1	0.00	0.00	206.48	88.12	-206.18	-86.16	0	0	0	0
3524	7240	0.000592	0.006385	0.01267	491.00	515.50	540.10	0.00000	0.000	1	0.00	0.00	206.48	88.12	-206.18	-86.16	0	0	0	0
3524	76490	0.000208	0.015570	0.00000	700.00	700.00	700.00	1.00000	0.000	1	0.00	0.00	240.68	107.10	-240.54	-96.31	0	0	0	0
3524	76496	0.000061	0.000603	0.00201	731.00	767.50	804.10	0.00000	0.000	1	0.00	0.00	-198.06	12.55	198.08	-12.51	0	0	0	0
3525	3528	0.000010	0.000115	0.00108	736.00	772.80	809.60	0.00000	0.000	1	0.00	0.00	272.32	-28.81	-272.31	28.79	0	0	0	0
3525	76491	0.000357	0.024997	0.00000	400.00	400.00	400.00	1.00000	0.000	1	0.00	0.00	70.74	-1.18	-70.73	2.43	0	0	0	0
76492	3525	0.001184	0.059188	0.00000	250.00	250.00	250.00	1.00000	0.000	1	0.00	0.00	-94.58	-24.16	94.70	30.00	0	0	0	0
3526	6698	0.000167	0.001828	0.01776	736.00	772.80	809.60	0.00000	0.000	1	0.00	0.00	300.86	-11.96	-300.72	11.70	0	0	0	0
3526	76493	0.000438	0.032886	0.00000	450.00	450.00	450.00	1.00000	0.000	1	0.00	0.00	131.29	19.56	-131.22	-13.99	0	0	0	0
3527	4198	0.020191	0.151430	0.03182	240.00	240.00	240.00	0.00000	0.000	1	0.00	0.00	-1.40	-6.11	1.40	2.81	0	0	0	0
3527	4259	0.012325	0.092440	0.02424	219.00	229.90	240.90	0.00000	0.000	1	0.00	0.00	69.75	2.95	-69.17	-1.11	0	0	0	0
3527	7743	0.006245	0.046840	0.01323	240.00	240.00	240.00	0.00000	0.000	1	0.00	0.00	-3.91	-5.43	3.91	4.07	0	0	0	0
3527	8158	0.005292	0.039690	0.01206	205.00	215.20	225.50	0.00000	0.000	1	0.00	0.00	82.47	-7.14	-82.12	8.50	0	0	0	0
...